nh2 r28 neutral
 OpenBabel10202110183D

 26 28  0  0  0  0  0  0  0  0999 V2000
    0.0000   -1.2160   -0.0063 N   0  0  0  0  0  0  0  0  0  0  0  0
    0.0000    1.6319    0.0034 N   0  0  0  0  0  0  0  0  0  0  0  0
    1.1487   -0.5156   -0.0052 C   0  0  0  0  0  0  0  0  0  0  0  0
    1.1432    0.9326    0.0001 C   0  0  0  0  0  0  0  0  0  0  0  0
   -1.1487   -0.5156   -0.0052 C   0  0  0  0  0  0  0  0  0  0  0  0
   -1.1432    0.9326    0.0001 C   0  0  0  0  0  0  0  0  0  0  0  0
    2.3925   -1.2038   -0.0025 C   0  0  0  0  0  0  0  0  0  0  0  0
    2.3949    1.6225    0.0026 C   0  0  0  0  0  0  0  0  0  0  0  0
    3.5871   -0.5084   -0.0018 C   0  0  0  0  0  0  0  0  0  0  0  0
   -2.3925   -1.2038   -0.0025 C   0  0  0  0  0  0  0  0  0  0  0  0
   -2.3949    1.6225    0.0026 C   0  0  0  0  0  0  0  0  0  0  0  0
    3.5734    0.9296   -0.0013 C   0  0  0  0  0  0  0  0  0  0  0  0
   -3.5871   -0.5084   -0.0018 C   0  0  0  0  0  0  0  0  0  0  0  0
   -3.5734    0.9296   -0.0013 C   0  0  0  0  0  0  0  0  0  0  0  0
    2.3750    2.7079    0.0049 H   0  0  0  0  0  0  0  0  0  0  0  0
   -2.3696   -2.2897   -0.0054 H   0  0  0  0  0  0  0  0  0  0  0  0
   -2.3750    2.7079    0.0049 H   0  0  0  0  0  0  0  0  0  0  0  0
    4.5211    1.4623   -0.0109 H   0  0  0  0  0  0  0  0  0  0  0  0
   -4.5211    1.4623   -0.0109 H   0  0  0  0  0  0  0  0  0  0  0  0
    4.8158   -1.1560   -0.0578 N   0  0  0  0  0  0  0  0  0  0  0  0
    4.8244   -2.1367    0.1840 H   0  0  0  0  0  0  0  0  0  0  0  0
    5.6170   -0.6491    0.2904 H   0  0  0  0  0  0  0  0  0  0  0  0
    2.3696   -2.2897   -0.0054 H   0  0  0  0  0  0  0  0  0  0  0  0
   -4.8158   -1.1560   -0.0578 N   0  0  0  0  0  0  0  0  0  0  0  0
   -5.6170   -0.6492    0.2905 H   0  0  0  0  0  0  0  0  0  0  0  0
   -4.8244   -2.1367    0.1839 H   0  0  0  0  0  0  0  0  0  0  0  0
  1  5  2  0  0  0  0
  1  3  1  0  0  0  0
  3  7  2  0  0  0  0
  3  4  1  0  0  0  0
  4  8  2  0  0  0  0
  4  2  1  0  0  0  0
  5 10  1  0  0  0  0
  5  6  1  0  0  0  0
  6 11  1  0  0  0  0
  6  2  2  0  0  0  0
  7  9  1  0  0  0  0
  8 15  1  0  0  0  0
  9 12  2  0  0  0  0
 10 13  2  0  0  0  0
 11 17  1  0  0  0  0
 12  8  1  0  0  0  0
 13 14  1  0  0  0  0
 14 11  2  0  0  0  0
 16 10  1  0  0  0  0
 18 12  1  0  0  0  0
 19 14  1  0  0  0  0
 20  9  1  0  0  0  0
 20 21  1  0  0  0  0
 20 22  1  0  0  0  0
 23  7  1  0  0  0  0
 24 13  1  0  0  0  0
 24 26  1  0  0  0  0
 24 25  1  0  0  0  0
M  END
