nh2 r129 neutral
 OpenBabel10202110183D

 28 30  0  0  0  0  0  0  0  0999 V2000
   -0.2770    0.9281    0.0091 N   0  0  0  0  0  0  0  0  0  0  0  0
   -0.4601   -1.8961    0.0097 N   0  0  0  0  0  0  0  0  0  0  0  0
    2.2175    2.1910   -0.0209 N   0  0  0  0  0  0  0  0  0  0  0  0
    0.8283    0.1634    0.0097 C   0  0  0  0  0  0  0  0  0  0  0  0
    0.7294   -1.2816    0.0161 C   0  0  0  0  0  0  0  0  0  0  0  0
   -1.4653    0.3088    0.0088 C   0  0  0  0  0  0  0  0  0  0  0  0
   -1.5677   -1.1330    0.0024 C   0  0  0  0  0  0  0  0  0  0  0  0
    2.1132    0.7917    0.0114 C   0  0  0  0  0  0  0  0  0  0  0  0
    1.9292   -2.0533    0.0342 C   0  0  0  0  0  0  0  0  0  0  0  0
    3.2561    0.0031   -0.0146 C   0  0  0  0  0  0  0  0  0  0  0  0
   -2.6699    1.1089    0.0033 C   0  0  0  0  0  0  0  0  0  0  0  0
   -2.8535   -1.7487   -0.0152 C   0  0  0  0  0  0  0  0  0  0  0  0
    3.1449   -1.4198    0.0198 C   0  0  0  0  0  0  0  0  0  0  0  0
   -3.8926    0.4626   -0.0199 C   0  0  0  0  0  0  0  0  0  0  0  0
   -3.9756   -0.9564   -0.0292 C   0  0  0  0  0  0  0  0  0  0  0  0
    1.8452   -3.1343    0.0500 H   0  0  0  0  0  0  0  0  0  0  0  0
   -2.9049   -2.8318   -0.0196 H   0  0  0  0  0  0  0  0  0  0  0  0
   -4.8072    1.0498   -0.0230 H   0  0  0  0  0  0  0  0  0  0  0  0
   -4.9601   -1.4152   -0.0462 H   0  0  0  0  0  0  0  0  0  0  0  0
    1.3113    2.6305    0.0988 H   0  0  0  0  0  0  0  0  0  0  0  0
    2.8921    2.5607    0.6425 H   0  0  0  0  0  0  0  0  0  0  0  0
    4.5137    0.6228   -0.0134 N   0  0  0  0  0  0  0  0  0  0  0  0
    4.5492    1.4784   -0.5586 H   0  0  0  0  0  0  0  0  0  0  0  0
    5.2866    0.0098   -0.2384 H   0  0  0  0  0  0  0  0  0  0  0  0
    4.0607   -2.0065    0.0232 H   0  0  0  0  0  0  0  0  0  0  0  0
   -2.5376    2.4844    0.0662 N   0  0  0  0  0  0  0  0  0  0  0  0
   -1.6184    2.8351   -0.1661 H   0  0  0  0  0  0  0  0  0  0  0  0
   -3.3081    3.0375   -0.2786 H   0  0  0  0  0  0  0  0  0  0  0  0
  1  4  1  0  0  0  0
  2  5  1  0  0  0  0
  3  8  1  0  0  0  0
  3 20  1  0  0  0  0
  3 21  1  0  0  0  0
  4  8  2  0  0  0  0
  4  5  1  0  0  0  0
  5  9  2  0  0  0  0
  6  1  2  0  0  0  0
  7  6  1  0  0  0  0
  7  2  2  0  0  0  0
  9 16  1  0  0  0  0
 10 22  1  0  0  0  0
 10  8  1  0  0  0  0
 10 13  2  0  0  0  0
 11  6  1  0  0  0  0
 11 26  1  0  0  0  0
 12  7  1  0  0  0  0
 13 25  1  0  0  0  0
 13  9  1  0  0  0  0
 14 11  2  0  0  0  0
 15 14  1  0  0  0  0
 15 12  2  0  0  0  0
 17 12  1  0  0  0  0
 18 14  1  0  0  0  0
 19 15  1  0  0  0  0
 23 22  1  0  0  0  0
 24 22  1  0  0  0  0
 27 26  1  0  0  0  0
 28 26  1  0  0  0  0
M  END
