nh2 r136 neutral
 OpenBabel10202110183D

 28 30  0  0  0  0  0  0  0  0999 V2000
   -0.1752    1.5322    0.0058 N   0  0  0  0  0  0  0  0  0  0  0  0
   -0.4701   -1.2755   -0.0069 N   0  0  0  0  0  0  0  0  0  0  0  0
    2.2865    2.6869   -0.0640 N   0  0  0  0  0  0  0  0  0  0  0  0
    0.8808    0.7227   -0.0047 C   0  0  0  0  0  0  0  0  0  0  0  0
    0.7561   -0.7191   -0.0072 C   0  0  0  0  0  0  0  0  0  0  0  0
   -1.4043    0.9748    0.0077 C   0  0  0  0  0  0  0  0  0  0  0  0
   -1.5342   -0.4605    0.0045 C   0  0  0  0  0  0  0  0  0  0  0  0
    2.2069    1.3150   -0.0075 C   0  0  0  0  0  0  0  0  0  0  0  0
    1.9161   -1.5321   -0.0089 C   0  0  0  0  0  0  0  0  0  0  0  0
    3.3064    0.4837    0.0072 C   0  0  0  0  0  0  0  0  0  0  0  0
   -2.5669    1.7956    0.0034 C   0  0  0  0  0  0  0  0  0  0  0  0
   -2.8541   -1.0528    0.0077 C   0  0  0  0  0  0  0  0  0  0  0  0
    3.1682   -0.9406    0.0058 C   0  0  0  0  0  0  0  0  0  0  0  0
   -3.8058    1.1979   -0.0095 C   0  0  0  0  0  0  0  0  0  0  0  0
   -3.9560   -0.2144   -0.0066 C   0  0  0  0  0  0  0  0  0  0  0  0
    1.7946   -2.6105   -0.0083 H   0  0  0  0  0  0  0  0  0  0  0  0
   -2.4423    2.8730    0.0044 H   0  0  0  0  0  0  0  0  0  0  0  0
   -4.7013    1.8128   -0.0187 H   0  0  0  0  0  0  0  0  0  0  0  0
   -4.9545   -0.6438   -0.0032 H   0  0  0  0  0  0  0  0  0  0  0  0
    1.4202    3.1774    0.1160 H   0  0  0  0  0  0  0  0  0  0  0  0
    3.1332    3.1339    0.2516 H   0  0  0  0  0  0  0  0  0  0  0  0
    4.3276   -1.7050    0.0713 N   0  0  0  0  0  0  0  0  0  0  0  0
    4.2393   -2.6794   -0.1797 H   0  0  0  0  0  0  0  0  0  0  0  0
    5.1762   -1.2785   -0.2722 H   0  0  0  0  0  0  0  0  0  0  0  0
    4.3057    0.9128    0.0170 H   0  0  0  0  0  0  0  0  0  0  0  0
   -2.9390   -2.4291    0.0700 N   0  0  0  0  0  0  0  0  0  0  0  0
   -2.0755   -2.9193   -0.1244 H   0  0  0  0  0  0  0  0  0  0  0  0
   -3.7829   -2.8649   -0.2693 H   0  0  0  0  0  0  0  0  0  0  0  0
  1  6  1  0  0  0  0
  2  7  1  0  0  0  0
  3  8  1  0  0  0  0
  3 20  1  0  0  0  0
  3 21  1  0  0  0  0
  4  1  2  0  0  0  0
  5  2  2  0  0  0  0
  5  4  1  0  0  0  0
  7 12  2  0  0  0  0
  7  6  1  0  0  0  0
  8  4  1  0  0  0  0
  8 10  2  0  0  0  0
  9 16  1  0  0  0  0
  9  5  1  0  0  0  0
  9 13  2  0  0  0  0
 10 25  1  0  0  0  0
 11 17  1  0  0  0  0
 11  6  2  0  0  0  0
 12 26  1  0  0  0  0
 13 10  1  0  0  0  0
 13 22  1  0  0  0  0
 14 15  2  0  0  0  0
 14 11  1  0  0  0  0
 15 19  1  0  0  0  0
 15 12  1  0  0  0  0
 18 14  1  0  0  0  0
 23 22  1  0  0  0  0
 24 22  1  0  0  0  0
 27 26  1  0  0  0  0
 28 26  1  0  0  0  0
M  END
