nh2 r1236 neutral
 OpenBabel10202110183D

 30 32  0  0  0  0  0  0  0  0999 V2000
   -0.3989   -1.4917   -0.0366 N   0  0  0  0  0  0  0  0  0  0  0  0
   -0.8401    1.3005    0.0106 N   0  0  0  0  0  0  0  0  0  0  0  0
    2.1788   -2.5235    0.0464 N   0  0  0  0  0  0  0  0  0  0  0  0
    0.6201   -0.6263   -0.0236 C   0  0  0  0  0  0  0  0  0  0  0  0
    0.4066    0.8065   -0.0062 C   0  0  0  0  0  0  0  0  0  0  0  0
   -1.6520   -0.9953   -0.0172 C   0  0  0  0  0  0  0  0  0  0  0  0
   -1.8623    0.4316    0.0156 C   0  0  0  0  0  0  0  0  0  0  0  0
    1.9609   -1.1357   -0.0150 C   0  0  0  0  0  0  0  0  0  0  0  0
    1.5279    1.6780   -0.0470 C   0  0  0  0  0  0  0  0  0  0  0  0
    3.0275   -0.2572    0.0345 C   0  0  0  0  0  0  0  0  0  0  0  0
   -2.7735   -1.8720   -0.0410 C   0  0  0  0  0  0  0  0  0  0  0  0
   -3.2097    0.9554    0.0401 C   0  0  0  0  0  0  0  0  0  0  0  0
    2.8066    1.1645   -0.0491 C   0  0  0  0  0  0  0  0  0  0  0  0
   -4.0414   -1.3379   -0.0335 C   0  0  0  0  0  0  0  0  0  0  0  0
   -4.2682    0.0629    0.0082 C   0  0  0  0  0  0  0  0  0  0  0  0
   -2.5955   -2.9415   -0.0668 H   0  0  0  0  0  0  0  0  0  0  0  0
   -4.9032   -1.9994   -0.0551 H   0  0  0  0  0  0  0  0  0  0  0  0
   -5.2876    0.4390    0.0274 H   0  0  0  0  0  0  0  0  0  0  0  0
    1.2929   -3.0213    0.0188 H   0  0  0  0  0  0  0  0  0  0  0  0
    2.8007   -2.8721   -0.6771 H   0  0  0  0  0  0  0  0  0  0  0  0
    4.3449   -0.7361    0.1091 N   0  0  0  0  0  0  0  0  0  0  0  0
    4.3861   -1.6742    0.4969 H   0  0  0  0  0  0  0  0  0  0  0  0
    4.9602   -0.1144    0.6245 H   0  0  0  0  0  0  0  0  0  0  0  0
    3.9494    1.9788   -0.0407 N   0  0  0  0  0  0  0  0  0  0  0  0
    3.7517    2.9649   -0.1559 H   0  0  0  0  0  0  0  0  0  0  0  0
    4.6806    1.6792   -0.6775 H   0  0  0  0  0  0  0  0  0  0  0  0
    1.3500    2.7481   -0.0901 H   0  0  0  0  0  0  0  0  0  0  0  0
   -3.3659    2.3233    0.1384 N   0  0  0  0  0  0  0  0  0  0  0  0
   -2.5322    2.8644   -0.0493 H   0  0  0  0  0  0  0  0  0  0  0  0
   -4.2351    2.7221   -0.1818 H   0  0  0  0  0  0  0  0  0  0  0  0
  1  4  2  0  0  0  0
  1  6  1  0  0  0  0
  2  7  1  0  0  0  0
  4  8  1  0  0  0  0
  4  5  1  0  0  0  0
  5  2  2  0  0  0  0
  6  7  1  0  0  0  0
  7 12  2  0  0  0  0
  8 10  2  0  0  0  0
  8  3  1  0  0  0  0
  9  5  1  0  0  0  0
 10 21  1  0  0  0  0
 11 14  1  0  0  0  0
 11  6  2  0  0  0  0
 12 28  1  0  0  0  0
 13  9  2  0  0  0  0
 13 24  1  0  0  0  0
 13 10  1  0  0  0  0
 14 15  2  0  0  0  0
 15 18  1  0  0  0  0
 15 12  1  0  0  0  0
 16 11  1  0  0  0  0
 17 14  1  0  0  0  0
 19  3  1  0  0  0  0
 20  3  1  0  0  0  0
 21 22  1  0  0  0  0
 21 23  1  0  0  0  0
 25 24  1  0  0  0  0
 26 24  1  0  0  0  0
 27  9  1  0  0  0  0
 29 28  1  0  0  0  0
 30 28  1  0  0  0  0
M  END
