nh2 r1239 neutral
 OpenBabel10202110183D

 30 32  0  0  0  0  0  0  0  0999 V2000
    0.6684    1.0056   -0.0309 N   0  0  0  0  0  0  0  0  0  0  0  0
    0.5525   -1.8214    0.0184 N   0  0  0  0  0  0  0  0  0  0  0  0
   -1.6793    2.5255    0.0247 N   0  0  0  0  0  0  0  0  0  0  0  0
   -0.5057    0.3621   -0.0226 C   0  0  0  0  0  0  0  0  0  0  0  0
   -0.5667   -1.0859    0.0002 C   0  0  0  0  0  0  0  0  0  0  0  0
    1.7890    0.2647   -0.0154 C   0  0  0  0  0  0  0  0  0  0  0  0
    1.7357   -1.1772    0.0141 C   0  0  0  0  0  0  0  0  0  0  0  0
   -1.7229    1.1187   -0.0189 C   0  0  0  0  0  0  0  0  0  0  0  0
   -1.8366   -1.7249   -0.0321 C   0  0  0  0  0  0  0  0  0  0  0  0
   -2.9378    0.4612    0.0369 C   0  0  0  0  0  0  0  0  0  0  0  0
    3.0689    0.9330   -0.0205 C   0  0  0  0  0  0  0  0  0  0  0  0
    2.9488   -1.9239    0.0445 C   0  0  0  0  0  0  0  0  0  0  0  0
   -2.9929   -0.9772   -0.0371 C   0  0  0  0  0  0  0  0  0  0  0  0
    4.2187    0.1631    0.0158 C   0  0  0  0  0  0  0  0  0  0  0  0
    4.1500   -1.2549    0.0487 C   0  0  0  0  0  0  0  0  0  0  0  0
    2.8859   -3.0063    0.0671 H   0  0  0  0  0  0  0  0  0  0  0  0
    5.1898    0.6511    0.0098 H   0  0  0  0  0  0  0  0  0  0  0  0
    5.0796   -1.8166    0.0758 H   0  0  0  0  0  0  0  0  0  0  0  0
   -0.7192    2.8516   -0.0214 H   0  0  0  0  0  0  0  0  0  0  0  0
   -2.2317    2.9699   -0.7030 H   0  0  0  0  0  0  0  0  0  0  0  0
   -4.1400    1.1833    0.1056 N   0  0  0  0  0  0  0  0  0  0  0  0
   -4.0049    2.1132    0.4913 H   0  0  0  0  0  0  0  0  0  0  0  0
   -4.8640    0.6907    0.6195 H   0  0  0  0  0  0  0  0  0  0  0  0
   -4.2701   -1.5580   -0.0246 N   0  0  0  0  0  0  0  0  0  0  0  0
   -4.2629   -2.5646   -0.1327 H   0  0  0  0  0  0  0  0  0  0  0  0
   -4.9303   -1.1299   -0.6655 H   0  0  0  0  0  0  0  0  0  0  0  0
   -1.8634   -2.8094   -0.0706 H   0  0  0  0  0  0  0  0  0  0  0  0
    3.0849    2.3148   -0.1086 N   0  0  0  0  0  0  0  0  0  0  0  0
    2.2080    2.7641    0.1167 H   0  0  0  0  0  0  0  0  0  0  0  0
    3.9075    2.7859    0.2381 H   0  0  0  0  0  0  0  0  0  0  0  0
  1  4  2  0  0  0  0
  1  6  1  0  0  0  0
  4  8  1  0  0  0  0
  4  5  1  0  0  0  0
  5  2  2  0  0  0  0
  6  7  1  0  0  0  0
  7  2  1  0  0  0  0
  7 12  2  0  0  0  0
  8  3  1  0  0  0  0
  8 10  2  0  0  0  0
  9  5  1  0  0  0  0
 10 21  1  0  0  0  0
 11  6  2  0  0  0  0
 11 14  1  0  0  0  0
 12 15  1  0  0  0  0
 12 16  1  0  0  0  0
 13  9  2  0  0  0  0
 13 24  1  0  0  0  0
 13 10  1  0  0  0  0
 14 15  2  0  0  0  0
 15 18  1  0  0  0  0
 17 14  1  0  0  0  0
 19  3  1  0  0  0  0
 20  3  1  0  0  0  0
 21 22  1  0  0  0  0
 21 23  1  0  0  0  0
 25 24  1  0  0  0  0
 26 24  1  0  0  0  0
 27  9  1  0  0  0  0
 28 11  1  0  0  0  0
 28 29  1  0  0  0  0
 28 30  1  0  0  0  0
M  END
