nh2 r1248 neutral
 OpenBabel10202110183D

 30 32  0  0  0  0  0  0  0  0999 V2000
    0.3053   -1.2346    0.0387 N   0  0  0  0  0  0  0  0  0  0  0  0
    0.2758    1.5970   -0.0076 N   0  0  0  0  0  0  0  0  0  0  0  0
    1.4508   -0.5298    0.0194 C   0  0  0  0  0  0  0  0  0  0  0  0
    1.4337    0.9156   -0.0100 C   0  0  0  0  0  0  0  0  0  0  0  0
   -0.8561   -0.5518    0.0369 C   0  0  0  0  0  0  0  0  0  0  0  0
   -0.8593    0.8983    0.0218 C   0  0  0  0  0  0  0  0  0  0  0  0
    2.7012   -1.2057    0.0167 C   0  0  0  0  0  0  0  0  0  0  0  0
    2.6746    1.6181   -0.0399 C   0  0  0  0  0  0  0  0  0  0  0  0
    3.8893   -0.4986   -0.0089 C   0  0  0  0  0  0  0  0  0  0  0  0
   -2.0847   -1.2646    0.0258 C   0  0  0  0  0  0  0  0  0  0  0  0
   -2.1174    1.6113    0.0330 C   0  0  0  0  0  0  0  0  0  0  0  0
    3.8622    0.9378   -0.0361 C   0  0  0  0  0  0  0  0  0  0  0  0
   -3.2750   -0.5482   -0.0284 C   0  0  0  0  0  0  0  0  0  0  0  0
   -3.2848    0.8793    0.0045 C   0  0  0  0  0  0  0  0  0  0  0  0
   -4.2440    1.3922    0.0128 H   0  0  0  0  0  0  0  0  0  0  0  0
   -2.0794    2.9930    0.1149 N   0  0  0  0  0  0  0  0  0  0  0  0
   -1.1749    3.3976   -0.0913 H   0  0  0  0  0  0  0  0  0  0  0  0
   -2.8697    3.4986   -0.2572 H   0  0  0  0  0  0  0  0  0  0  0  0
   -2.1093   -2.6847   -0.0177 N   0  0  0  0  0  0  0  0  0  0  0  0
   -1.1571   -3.0352   -0.0845 H   0  0  0  0  0  0  0  0  0  0  0  0
   -2.5422   -3.0869    0.8116 H   0  0  0  0  0  0  0  0  0  0  0  0
    2.6453    2.7031   -0.0600 H   0  0  0  0  0  0  0  0  0  0  0  0
    2.6913   -2.2917    0.0381 H   0  0  0  0  0  0  0  0  0  0  0  0
    5.1248   -1.1351    0.0465 N   0  0  0  0  0  0  0  0  0  0  0  0
    5.1381   -2.1189   -0.1825 H   0  0  0  0  0  0  0  0  0  0  0  0
    5.9158   -0.6279   -0.3239 H   0  0  0  0  0  0  0  0  0  0  0  0
   -4.4792   -1.2466   -0.0561 N   0  0  0  0  0  0  0  0  0  0  0  0
   -5.2789   -0.7308   -0.3975 H   0  0  0  0  0  0  0  0  0  0  0  0
   -4.4005   -2.1740   -0.4606 H   0  0  0  0  0  0  0  0  0  0  0  0
    4.8041    1.4805   -0.0456 H   0  0  0  0  0  0  0  0  0  0  0  0
  2  6  1  0  0  0  0
  3  1  2  0  0  0  0
  4  2  2  0  0  0  0
  4  3  1  0  0  0  0
  5  1  1  0  0  0  0
  6 11  1  0  0  0  0
  6  5  2  0  0  0  0
  7  3  1  0  0  0  0
  7 23  1  0  0  0  0
  8 12  2  0  0  0  0
  8  4  1  0  0  0  0
  9  7  2  0  0  0  0
  9 24  1  0  0  0  0
 10  5  1  0  0  0  0
 11 16  1  0  0  0  0
 12  9  1  0  0  0  0
 13 14  1  0  0  0  0
 13 10  2  0  0  0  0
 14 15  1  0  0  0  0
 14 11  2  0  0  0  0
 17 16  1  0  0  0  0
 18 16  1  0  0  0  0
 19 10  1  0  0  0  0
 19 21  1  0  0  0  0
 20 19  1  0  0  0  0
 22  8  1  0  0  0  0
 25 24  1  0  0  0  0
 26 24  1  0  0  0  0
 27 13  1  0  0  0  0
 28 27  1  0  0  0  0
 29 27  1  0  0  0  0
 30 12  1  0  0  0  0
M  END
