nh2 r1249 neutral
 OpenBabel10202110183D

 30 32  0  0  0  0  0  0  0  0999 V2000
    0.4115    1.6994   -0.0042 N   0  0  0  0  0  0  0  0  0  0  0  0
    0.4932   -1.1199    0.0273 N   0  0  0  0  0  0  0  0  0  0  0  0
    1.5939    1.0499   -0.0121 C   0  0  0  0  0  0  0  0  0  0  0  0
    1.6190   -0.3914    0.0157 C   0  0  0  0  0  0  0  0  0  0  0  0
   -0.7076    0.9801    0.0254 C   0  0  0  0  0  0  0  0  0  0  0  0
   -0.6865   -0.4699    0.0301 C   0  0  0  0  0  0  0  0  0  0  0  0
    2.8129    1.7836   -0.0542 C   0  0  0  0  0  0  0  0  0  0  0  0
    2.8925   -1.0759    0.0155 C   0  0  0  0  0  0  0  0  0  0  0  0
    4.0052    1.0989   -0.0670 C   0  0  0  0  0  0  0  0  0  0  0  0
   -1.9784    1.6730    0.0435 C   0  0  0  0  0  0  0  0  0  0  0  0
   -1.9030   -1.2044    0.0144 C   0  0  0  0  0  0  0  0  0  0  0  0
    4.0512   -0.3203   -0.0312 C   0  0  0  0  0  0  0  0  0  0  0  0
   -3.1326    0.9212    0.0099 C   0  0  0  0  0  0  0  0  0  0  0  0
   -3.1033   -0.5059   -0.0325 C   0  0  0  0  0  0  0  0  0  0  0  0
   -4.0998    1.4188    0.0213 H   0  0  0  0  0  0  0  0  0  0  0  0
   -1.9112   -2.6244   -0.0302 N   0  0  0  0  0  0  0  0  0  0  0  0
   -0.9587   -2.9711   -0.0896 H   0  0  0  0  0  0  0  0  0  0  0  0
   -2.3515   -3.0324    0.7924 H   0  0  0  0  0  0  0  0  0  0  0  0
   -1.9601    3.0529    0.1345 N   0  0  0  0  0  0  0  0  0  0  0  0
   -1.0608    3.4726   -0.0648 H   0  0  0  0  0  0  0  0  0  0  0  0
   -2.7594    3.5529   -0.2252 H   0  0  0  0  0  0  0  0  0  0  0  0
    2.7649    2.8669   -0.0747 H   0  0  0  0  0  0  0  0  0  0  0  0
    4.9428    1.6464   -0.1011 H   0  0  0  0  0  0  0  0  0  0  0  0
    5.0155   -0.8220   -0.0306 H   0  0  0  0  0  0  0  0  0  0  0  0
   -4.2987   -1.2203   -0.0592 N   0  0  0  0  0  0  0  0  0  0  0  0
   -4.2133   -2.1408   -0.4776 H   0  0  0  0  0  0  0  0  0  0  0  0
   -5.1076   -0.7105   -0.3877 H   0  0  0  0  0  0  0  0  0  0  0  0
    2.8871   -2.4558    0.1072 N   0  0  0  0  0  0  0  0  0  0  0  0
    1.9975   -2.8909   -0.0961 H   0  0  0  0  0  0  0  0  0  0  0  0
    3.6978   -2.9461   -0.2402 H   0  0  0  0  0  0  0  0  0  0  0  0
  1  5  1  0  0  0  0
  2  6  1  0  0  0  0
  3  1  2  0  0  0  0
  3  4  1  0  0  0  0
  4  2  2  0  0  0  0
  5  6  2  0  0  0  0
  5 10  1  0  0  0  0
  7  3  1  0  0  0  0
  8  4  1  0  0  0  0
  8 28  1  0  0  0  0
  9  7  2  0  0  0  0
  9 12  1  0  0  0  0
 10 19  1  0  0  0  0
 11  6  1  0  0  0  0
 12 24  1  0  0  0  0
 12  8  2  0  0  0  0
 13 15  1  0  0  0  0
 13 10  2  0  0  0  0
 14 13  1  0  0  0  0
 14 11  2  0  0  0  0
 16 11  1  0  0  0  0
 16 18  1  0  0  0  0
 17 16  1  0  0  0  0
 20 19  1  0  0  0  0
 21 19  1  0  0  0  0
 22  7  1  0  0  0  0
 23  9  1  0  0  0  0
 25 14  1  0  0  0  0
 26 25  1  0  0  0  0
 27 25  1  0  0  0  0
 29 28  1  0  0  0  0
 30 28  1  0  0  0  0
M  END
