nh2 r1289 neutral
 OpenBabel10202110183D

 30 32  0  0  0  0  0  0  0  0999 V2000
    0.0000    0.8520   -0.0000 N   0  0  0  0  0  0  0  0  0  0  0  0
    0.0000   -1.9830   -0.0000 N   0  0  0  0  0  0  0  0  0  0  0  0
   -2.4092    2.2679    0.0209 N   0  0  0  0  0  0  0  0  0  0  0  0
   -1.1505    0.1559   -0.0079 C   0  0  0  0  0  0  0  0  0  0  0  0
   -1.1489   -1.2920   -0.0130 C   0  0  0  0  0  0  0  0  0  0  0  0
    1.1505    0.1559    0.0079 C   0  0  0  0  0  0  0  0  0  0  0  0
    1.1489   -1.2920    0.0130 C   0  0  0  0  0  0  0  0  0  0  0  0
   -2.3933    0.8627   -0.0159 C   0  0  0  0  0  0  0  0  0  0  0  0
   -2.3949   -1.9857   -0.0377 C   0  0  0  0  0  0  0  0  0  0  0  0
   -3.5851    0.1496    0.0023 C   0  0  0  0  0  0  0  0  0  0  0  0
    2.3933    0.8627    0.0159 C   0  0  0  0  0  0  0  0  0  0  0  0
    2.3949   -1.9857    0.0377 C   0  0  0  0  0  0  0  0  0  0  0  0
   -3.5688   -1.2781   -0.0318 C   0  0  0  0  0  0  0  0  0  0  0  0
    3.5851    0.1497   -0.0023 C   0  0  0  0  0  0  0  0  0  0  0  0
    3.5688   -1.2781    0.0318 C   0  0  0  0  0  0  0  0  0  0  0  0
    2.3789   -3.0700    0.0521 H   0  0  0  0  0  0  0  0  0  0  0  0
    4.5206   -1.8043    0.0410 H   0  0  0  0  0  0  0  0  0  0  0  0
   -1.4708    2.6431   -0.0683 H   0  0  0  0  0  0  0  0  0  0  0  0
   -3.0293    2.6809   -0.6701 H   0  0  0  0  0  0  0  0  0  0  0  0
   -4.7986    0.8497   -0.0049 N   0  0  0  0  0  0  0  0  0  0  0  0
   -4.7732    1.7175    0.5210 H   0  0  0  0  0  0  0  0  0  0  0  0
   -5.6097    0.2939    0.2336 H   0  0  0  0  0  0  0  0  0  0  0  0
   -4.5206   -1.8043   -0.0410 H   0  0  0  0  0  0  0  0  0  0  0  0
   -2.3789   -3.0700   -0.0521 H   0  0  0  0  0  0  0  0  0  0  0  0
    2.4092    2.2679   -0.0209 N   0  0  0  0  0  0  0  0  0  0  0  0
    4.7986    0.8497    0.0049 N   0  0  0  0  0  0  0  0  0  0  0  0
    1.4707    2.6431    0.0683 H   0  0  0  0  0  0  0  0  0  0  0  0
    3.0293    2.6809    0.6700 H   0  0  0  0  0  0  0  0  0  0  0  0
    5.6098    0.2939   -0.2334 H   0  0  0  0  0  0  0  0  0  0  0  0
    4.7732    1.7177   -0.5208 H   0  0  0  0  0  0  0  0  0  0  0  0
  1  6  1  0  0  0  0
  2  7  1  0  0  0  0
  4  1  2  0  0  0  0
  5  4  1  0  0  0  0
  5  2  2  0  0  0  0
  6  7  2  0  0  0  0
  6 11  1  0  0  0  0
  7 12  1  0  0  0  0
  8  4  1  0  0  0  0
  8 10  2  0  0  0  0
  8  3  1  0  0  0  0
  9 13  2  0  0  0  0
  9  5  1  0  0  0  0
 12 16  1  0  0  0  0
 13 10  1  0  0  0  0
 14 26  1  0  0  0  0
 14 11  2  0  0  0  0
 14 15  1  0  0  0  0
 15 12  2  0  0  0  0
 15 17  1  0  0  0  0
 18  3  1  0  0  0  0
 19  3  1  0  0  0  0
 20 10  1  0  0  0  0
 20 22  1  0  0  0  0
 20 21  1  0  0  0  0
 23 13  1  0  0  0  0
 24  9  1  0  0  0  0
 25 11  1  0  0  0  0
 25 27  1  0  0  0  0
 25 28  1  0  0  0  0
 29 26  1  0  0  0  0
 30 26  1  0  0  0  0
M  END
