nh2 r1368 neutral
 OpenBabel10202110183D

 30 32  0  0  0  0  0  0  0  0999 V2000
    0.0030   -1.4113   -0.0150 N   0  0  0  0  0  0  0  0  0  0  0  0
   -0.0029    1.4110   -0.0071 N   0  0  0  0  0  0  0  0  0  0  0  0
    1.1668   -0.7285   -0.0131 C   0  0  0  0  0  0  0  0  0  0  0  0
    1.1356    0.7139   -0.0223 C   0  0  0  0  0  0  0  0  0  0  0  0
   -1.1356   -0.7141   -0.0208 C   0  0  0  0  0  0  0  0  0  0  0  0
   -1.1666    0.7281   -0.0029 C   0  0  0  0  0  0  0  0  0  0  0  0
    2.4057   -1.4177    0.0131 C   0  0  0  0  0  0  0  0  0  0  0  0
    2.3903    1.4401   -0.0285 C   0  0  0  0  0  0  0  0  0  0  0  0
    3.5884   -0.6995    0.0225 C   0  0  0  0  0  0  0  0  0  0  0  0
   -2.3904   -1.4400   -0.0263 C   0  0  0  0  0  0  0  0  0  0  0  0
   -2.4055    1.4175    0.0215 C   0  0  0  0  0  0  0  0  0  0  0  0
    3.5727    0.7302   -0.0006 C   0  0  0  0  0  0  0  0  0  0  0  0
   -3.5724   -0.7300    0.0109 C   0  0  0  0  0  0  0  0  0  0  0  0
   -3.5881    0.6994    0.0345 C   0  0  0  0  0  0  0  0  0  0  0  0
    4.5200    1.2644   -0.0228 H   0  0  0  0  0  0  0  0  0  0  0  0
    2.3263    2.8146   -0.1053 N   0  0  0  0  0  0  0  0  0  0  0  0
    1.4119    3.2079    0.0773 H   0  0  0  0  0  0  0  0  0  0  0  0
    3.1167    3.3481    0.2221 H   0  0  0  0  0  0  0  0  0  0  0  0
    2.3963   -2.5030    0.0203 H   0  0  0  0  0  0  0  0  0  0  0  0
    4.8273   -1.3393   -0.0083 N   0  0  0  0  0  0  0  0  0  0  0  0
    4.8300   -2.3109    0.2691 H   0  0  0  0  0  0  0  0  0  0  0  0
    5.6087   -0.8217    0.3692 H   0  0  0  0  0  0  0  0  0  0  0  0
   -2.3957    2.5028    0.0347 H   0  0  0  0  0  0  0  0  0  0  0  0
   -4.5196   -1.2650    0.0196 H   0  0  0  0  0  0  0  0  0  0  0  0
   -2.3276   -2.8148   -0.1079 N   0  0  0  0  0  0  0  0  0  0  0  0
   -1.4117   -3.2072    0.0698 H   0  0  0  0  0  0  0  0  0  0  0  0
   -3.1138   -3.3470    0.2324 H   0  0  0  0  0  0  0  0  0  0  0  0
   -4.8258    1.3376    0.1238 N   0  0  0  0  0  0  0  0  0  0  0  0
   -4.8340    2.3168   -0.1261 H   0  0  0  0  0  0  0  0  0  0  0  0
   -5.6156    0.8332   -0.2545 H   0  0  0  0  0  0  0  0  0  0  0  0
  1  3  1  0  0  0  0
  2  6  2  0  0  0  0
  3  7  1  0  0  0  0
  4  3  2  0  0  0  0
  4  2  1  0  0  0  0
  5  1  2  0  0  0  0
  5  6  1  0  0  0  0
  6 11  1  0  0  0  0
  7 19  1  0  0  0  0
  7  9  2  0  0  0  0
  8  4  1  0  0  0  0
  8 12  2  0  0  0  0
 10  5  1  0  0  0  0
 10 13  2  0  0  0  0
 11 14  2  0  0  0  0
 11 23  1  0  0  0  0
 12  9  1  0  0  0  0
 13 24  1  0  0  0  0
 13 14  1  0  0  0  0
 14 28  1  0  0  0  0
 15 12  1  0  0  0  0
 16  8  1  0  0  0  0
 16 17  1  0  0  0  0
 16 18  1  0  0  0  0
 20  9  1  0  0  0  0
 20 21  1  0  0  0  0
 20 22  1  0  0  0  0
 25 10  1  0  0  0  0
 25 26  1  0  0  0  0
 25 27  1  0  0  0  0
 29 28  1  0  0  0  0
 30 28  1  0  0  0  0
M  END
