s(ch3)2 r2 neutral
 OpenBabel10202110183D

 26 28  0  0  0  0  0  0  0  0999 V2000
    0.7795   -1.1889    0.0001 N   0  0  0  0  0  0  0  0  0  0  0  0
    1.4358    1.5810   -0.0001 N   0  0  0  0  0  0  0  0  0  0  0  0
   -0.1731   -0.2444    0.0001 C   0  0  0  0  0  0  0  0  0  0  0  0
    0.1655    1.1624   -0.0000 C   0  0  0  0  0  0  0  0  0  0  0  0
    2.0575   -0.7713    0.0000 C   0  0  0  0  0  0  0  0  0  0  0  0
    2.3927    0.6351   -0.0000 C   0  0  0  0  0  0  0  0  0  0  0  0
   -1.5465   -0.6370    0.0001 C   0  0  0  0  0  0  0  0  0  0  0  0
   -0.8984    2.1208   -0.0000 C   0  0  0  0  0  0  0  0  0  0  0  0
   -2.5428    0.3124    0.0001 C   0  0  0  0  0  0  0  0  0  0  0  0
    3.1136   -1.7332    0.0001 C   0  0  0  0  0  0  0  0  0  0  0  0
    3.7670    1.0226   -0.0001 C   0  0  0  0  0  0  0  0  0  0  0  0
   -2.2014    1.7119    0.0000 C   0  0  0  0  0  0  0  0  0  0  0  0
    4.4228   -1.3213    0.0000 C   0  0  0  0  0  0  0  0  0  0  0  0
    4.7531    0.0681   -0.0001 C   0  0  0  0  0  0  0  0  0  0  0  0
   -0.6330    3.1732   -0.0001 H   0  0  0  0  0  0  0  0  0  0  0  0
    2.8405   -2.7837    0.0001 H   0  0  0  0  0  0  0  0  0  0  0  0
    3.9927    2.0843   -0.0001 H   0  0  0  0  0  0  0  0  0  0  0  0
   -3.0015    2.4469   -0.0000 H   0  0  0  0  0  0  0  0  0  0  0  0
    5.2225   -2.0562    0.0000 H   0  0  0  0  0  0  0  0  0  0  0  0
    5.7976    0.3654   -0.0001 H   0  0  0  0  0  0  0  0  0  0  0  0
   -1.7482   -1.7012    0.0001 H   0  0  0  0  0  0  0  0  0  0  0  0
   -4.2824   -0.0309    0.0001 S   0  0  0  0  0  0  0  0  0  0  0  0
   -4.3543   -1.8501   -0.0003 C   0  0  0  0  0  0  0  0  0  0  0  0
   -5.4167   -2.1025    0.0003 H   0  0  0  0  0  0  0  0  0  0  0  0
   -3.8882   -2.2665    0.8961 H   0  0  0  0  0  0  0  0  0  0  0  0
   -3.8892   -2.2661   -0.8973 H   0  0  0  0  0  0  0  0  0  0  0  0
  2  6  2  0  0  0  0
  2  4  1  0  0  0  0
  3  1  1  0  0  0  0
  3  7  1  0  0  0  0
  4  3  2  0  0  0  0
  5 10  1  0  0  0  0
  5  1  2  0  0  0  0
  6  5  1  0  0  0  0
  7 21  1  0  0  0  0
  8  4  1  0  0  0  0
  8 12  2  0  0  0  0
  9  7  2  0  0  0  0
  9 22  1  0  0  0  0
 10 16  1  0  0  0  0
 11 14  2  0  0  0  0
 11  6  1  0  0  0  0
 12  9  1  0  0  0  0
 13 19  1  0  0  0  0
 13 10  2  0  0  0  0
 14 13  1  0  0  0  0
 15  8  1  0  0  0  0
 17 11  1  0  0  0  0
 18 12  1  0  0  0  0
 20 14  1  0  0  0  0
 23 22  1  0  0  0  0
 23 24  1  0  0  0  0
 23 25  1  0  0  0  0
 26 23  1  0  0  0  0
M  END
