sh r1 neutral
 OpenBabel10202110183D

 23 25  0  0  0  0  0  0  0  0999 V2000
    2.7259   -2.1181   -0.0000 S   0  0  0  0  0  0  0  0  0  0  0  0
   -0.1000   -0.9987   -0.0000 N   0  0  0  0  0  0  0  0  0  0  0  0
   -0.8054    1.7423   -0.0000 N   0  0  0  0  0  0  0  0  0  0  0  0
    0.8391   -0.0473   -0.0000 C   0  0  0  0  0  0  0  0  0  0  0  0
    0.4806    1.3586   -0.0000 C   0  0  0  0  0  0  0  0  0  0  0  0
   -1.3871   -0.6165    0.0000 C   0  0  0  0  0  0  0  0  0  0  0  0
   -1.7439    0.7843   -0.0000 C   0  0  0  0  0  0  0  0  0  0  0  0
    2.2373   -0.4138   -0.0000 C   0  0  0  0  0  0  0  0  0  0  0  0
    1.5070    2.3494    0.0000 C   0  0  0  0  0  0  0  0  0  0  0  0
    3.1888    0.5835    0.0000 C   0  0  0  0  0  0  0  0  0  0  0  0
   -2.4227   -1.5997    0.0000 C   0  0  0  0  0  0  0  0  0  0  0  0
   -3.1268    1.1467   -0.0000 C   0  0  0  0  0  0  0  0  0  0  0  0
    2.8218    1.9593    0.0000 C   0  0  0  0  0  0  0  0  0  0  0  0
   -3.7384   -1.2112    0.0000 C   0  0  0  0  0  0  0  0  0  0  0  0
   -4.0930    0.1734    0.0000 C   0  0  0  0  0  0  0  0  0  0  0  0
    1.2091    3.3923   -0.0000 H   0  0  0  0  0  0  0  0  0  0  0  0
    4.2425    0.3208    0.0000 H   0  0  0  0  0  0  0  0  0  0  0  0
   -2.1324   -2.6456    0.0000 H   0  0  0  0  0  0  0  0  0  0  0  0
   -3.3724    2.2038   -0.0000 H   0  0  0  0  0  0  0  0  0  0  0  0
    3.6102    2.7061    0.0000 H   0  0  0  0  0  0  0  0  0  0  0  0
   -4.5252   -1.9596    0.0000 H   0  0  0  0  0  0  0  0  0  0  0  0
   -5.1430    0.4507    0.0000 H   0  0  0  0  0  0  0  0  0  0  0  0
    1.4582   -2.5841   -0.0000 H   0  0  0  0  0  0  0  0  0  0  0  0
  2  6  1  0  0  0  0
  3  7  1  0  0  0  0
  4  2  2  0  0  0  0
  4  8  1  0  0  0  0
  5  4  1  0  0  0  0
  5  3  2  0  0  0  0
  5  9  1  0  0  0  0
  7  6  2  0  0  0  0
  8  1  1  0  0  0  0
  8 10  2  0  0  0  0
  9 16  1  0  0  0  0
  9 13  2  0  0  0  0
 10 17  1  0  0  0  0
 11 14  2  0  0  0  0
 11 18  1  0  0  0  0
 11  6  1  0  0  0  0
 12 19  1  0  0  0  0
 12  7  1  0  0  0  0
 12 15  2  0  0  0  0
 13 10  1  0  0  0  0
 14 21  1  0  0  0  0
 15 14  1  0  0  0  0
 15 22  1  0  0  0  0
 20 13  1  0  0  0  0
 23  1  1  0  0  0  0
M  END
