oh r17 neutral
 OpenBabel10202110183D

 24 26  0  0  0  0  0  0  0  0999 V2000
   -2.9537    2.1819   -0.0000 O   0  0  0  0  0  0  0  0  0  0  0  0
   -0.4028    1.2633    0.0000 N   0  0  0  0  0  0  0  0  0  0  0  0
    0.1038   -1.5316   -0.0000 N   0  0  0  0  0  0  0  0  0  0  0  0
   -1.4033    0.3739    0.0000 C   0  0  0  0  0  0  0  0  0  0  0  0
   -1.1524   -1.0521    0.0000 C   0  0  0  0  0  0  0  0  0  0  0  0
    0.8450    0.7816    0.0000 C   0  0  0  0  0  0  0  0  0  0  0  0
    1.1075   -0.6421   -0.0000 C   0  0  0  0  0  0  0  0  0  0  0  0
   -2.7690    0.8347   -0.0000 C   0  0  0  0  0  0  0  0  0  0  0  0
   -2.2506   -1.9629    0.0000 C   0  0  0  0  0  0  0  0  0  0  0  0
   -3.8002   -0.0779   -0.0000 C   0  0  0  0  0  0  0  0  0  0  0  0
   -3.5334   -1.4763    0.0000 C   0  0  0  0  0  0  0  0  0  0  0  0
    1.9524    1.6887    0.0000 C   0  0  0  0  0  0  0  0  0  0  0  0
    2.4574   -1.1009   -0.0000 C   0  0  0  0  0  0  0  0  0  0  0  0
    3.2358    1.2182    0.0000 C   0  0  0  0  0  0  0  0  0  0  0  0
    3.4876   -0.1916    0.0000 C   0  0  0  0  0  0  0  0  0  0  0  0
   -2.0343   -3.0255    0.0000 H   0  0  0  0  0  0  0  0  0  0  0  0
   -4.3744   -2.1635    0.0000 H   0  0  0  0  0  0  0  0  0  0  0  0
    1.7353    2.7519    0.0000 H   0  0  0  0  0  0  0  0  0  0  0  0
    2.6331   -2.1733   -0.0001 H   0  0  0  0  0  0  0  0  0  0  0  0
    4.0883    1.8894    0.0001 H   0  0  0  0  0  0  0  0  0  0  0  0
   -3.9005    2.3773    0.0001 H   0  0  0  0  0  0  0  0  0  0  0  0
   -4.8304    0.2706   -0.0000 H   0  0  0  0  0  0  0  0  0  0  0  0
    4.8064   -0.5445   -0.0000 O   0  0  0  0  0  0  0  0  0  0  0  0
    4.8925   -1.5077    0.0002 H   0  0  0  0  0  0  0  0  0  0  0  0
  1  8  1  0  0  0  0
  1 21  1  0  0  0  0
  2  4  1  0  0  0  0
  3  7  2  0  0  0  0
  3  5  1  0  0  0  0
  5  4  1  0  0  0  0
  6 12  1  0  0  0  0
  6  2  2  0  0  0  0
  7  6  1  0  0  0  0
  8 10  1  0  0  0  0
  8  4  2  0  0  0  0
  9  5  2  0  0  0  0
 10 11  2  0  0  0  0
 11  9  1  0  0  0  0
 11 17  1  0  0  0  0
 12 14  2  0  0  0  0
 12 18  1  0  0  0  0
 13  7  1  0  0  0  0
 13 15  2  0  0  0  0
 14 20  1  0  0  0  0
 15 14  1  0  0  0  0
 16  9  1  0  0  0  0
 19 13  1  0  0  0  0
 22 10  1  0  0  0  0
 23 15  1  0  0  0  0
 23 24  1  0  0  0  0
M  END
