oh r18 neutral
 OpenBabel10202110183D

 24 26  0  0  0  0  0  0  0  0999 V2000
    2.5463    2.4392    0.0000 O   0  0  0  0  0  0  0  0  0  0  0  0
    0.1825    1.1106   -0.0000 N   0  0  0  0  0  0  0  0  0  0  0  0
    0.1527   -1.7295    0.0000 N   0  0  0  0  0  0  0  0  0  0  0  0
    1.3158    0.3986    0.0000 C   0  0  0  0  0  0  0  0  0  0  0  0
    1.3127   -1.0489    0.0000 C   0  0  0  0  0  0  0  0  0  0  0  0
   -0.9715    0.4266   -0.0000 C   0  0  0  0  0  0  0  0  0  0  0  0
   -0.9815   -1.0207    0.0000 C   0  0  0  0  0  0  0  0  0  0  0  0
    2.5867    1.0789   -0.0000 C   0  0  0  0  0  0  0  0  0  0  0  0
    2.5465   -1.7660   -0.0000 C   0  0  0  0  0  0  0  0  0  0  0  0
    3.7548    0.3503    0.0000 C   0  0  0  0  0  0  0  0  0  0  0  0
    3.7301   -1.0738   -0.0000 C   0  0  0  0  0  0  0  0  0  0  0  0
   -2.2085    1.1357   -0.0000 C   0  0  0  0  0  0  0  0  0  0  0  0
   -2.2426   -1.6992    0.0000 C   0  0  0  0  0  0  0  0  0  0  0  0
   -3.3931    0.4403    0.0000 C   0  0  0  0  0  0  0  0  0  0  0  0
   -3.4122   -0.9916    0.0000 C   0  0  0  0  0  0  0  0  0  0  0  0
    2.5077   -2.8498   -0.0000 H   0  0  0  0  0  0  0  0  0  0  0  0
    4.6749   -1.6091   -0.0000 H   0  0  0  0  0  0  0  0  0  0  0  0
   -2.1740    2.2217   -0.0001 H   0  0  0  0  0  0  0  0  0  0  0  0
   -2.2345   -2.7843    0.0000 H   0  0  0  0  0  0  0  0  0  0  0  0
   -4.3767   -1.4888    0.0000 H   0  0  0  0  0  0  0  0  0  0  0  0
    3.4482    2.7871   -0.0001 H   0  0  0  0  0  0  0  0  0  0  0  0
    4.7117    0.8676    0.0000 H   0  0  0  0  0  0  0  0  0  0  0  0
   -4.6217    1.0368   -0.0000 O   0  0  0  0  0  0  0  0  0  0  0  0
   -4.5235    1.9988    0.0001 H   0  0  0  0  0  0  0  0  0  0  0  0
  2  4  1  0  0  0  0
  5  4  1  0  0  0  0
  5  3  1  0  0  0  0
  6  2  2  0  0  0  0
  6  7  1  0  0  0  0
  7  3  2  0  0  0  0
  8 10  1  0  0  0  0
  8  4  2  0  0  0  0
  8  1  1  0  0  0  0
  9 16  1  0  0  0  0
  9 11  1  0  0  0  0
  9  5  2  0  0  0  0
 10 22  1  0  0  0  0
 11 10  2  0  0  0  0
 12  6  1  0  0  0  0
 12 14  2  0  0  0  0
 13  7  1  0  0  0  0
 13 15  2  0  0  0  0
 13 19  1  0  0  0  0
 14 15  1  0  0  0  0
 15 20  1  0  0  0  0
 17 11  1  0  0  0  0
 18 12  1  0  0  0  0
 21  1  1  0  0  0  0
 23 14  1  0  0  0  0
 23 24  1  0  0  0  0
M  END
