oh r27 neutral
 OpenBabel10202110183D

 24 26  0  0  0  0  0  0  0  0999 V2000
    3.6675   -3.3312    0.0000 O   0  0  0  0  0  0  0  0  0  0  0  0
    1.2184    0.7367    0.0000 N   0  0  0  0  0  0  0  0  0  0  0  0
   -1.2184   -0.7367    0.0000 N   0  0  0  0  0  0  0  0  0  0  0  0
    1.2184   -0.6077    0.0000 C   0  0  0  0  0  0  0  0  0  0  0  0
    0.0266    1.3487    0.0000 C   0  0  0  0  0  0  0  0  0  0  0  0
   -0.0266   -1.3487    0.0000 C   0  0  0  0  0  0  0  0  0  0  0  0
   -1.2184    0.6077    0.0000 C   0  0  0  0  0  0  0  0  0  0  0  0
    2.4567   -1.3102    0.0000 C   0  0  0  0  0  0  0  0  0  0  0  0
   -0.0298    2.7771    0.0000 C   0  0  0  0  0  0  0  0  0  0  0  0
    0.0298   -2.7771    0.0000 C   0  0  0  0  0  0  0  0  0  0  0  0
   -2.4567    1.3102    0.0000 C   0  0  0  0  0  0  0  0  0  0  0  0
    2.4623   -2.6835    0.0000 C   0  0  0  0  0  0  0  0  0  0  0  0
   -1.2368    3.4236    0.0000 C   0  0  0  0  0  0  0  0  0  0  0  0
    1.2368   -3.4236    0.0000 C   0  0  0  0  0  0  0  0  0  0  0  0
   -2.4623    2.6835    0.0000 C   0  0  0  0  0  0  0  0  0  0  0  0
    3.3834   -0.7475    0.0000 H   0  0  0  0  0  0  0  0  0  0  0  0
    0.9079    3.3230    0.0000 H   0  0  0  0  0  0  0  0  0  0  0  0
   -0.9079   -3.3230    0.0000 H   0  0  0  0  0  0  0  0  0  0  0  0
   -3.3834    0.7475    0.0000 H   0  0  0  0  0  0  0  0  0  0  0  0
    1.2739   -4.5111    0.0000 H   0  0  0  0  0  0  0  0  0  0  0  0
   -1.2739    4.5111    0.0000 H   0  0  0  0  0  0  0  0  0  0  0  0
   -3.6675    3.3312    0.0000 O   0  0  0  0  0  0  0  0  0  0  0  0
   -3.5351    4.2880    0.0000 H   0  0  0  0  0  0  0  0  0  0  0  0
    3.5351   -4.2880    0.0000 H   0  0  0  0  0  0  0  0  0  0  0  0
  1 12  1  0  0  0  0
  4  2  1  0  0  0  0
  5  2  2  0  0  0  0
  6  4  1  0  0  0  0
  6  3  1  0  0  0  0
  7  5  1  0  0  0  0
  7  3  2  0  0  0  0
  8  4  2  0  0  0  0
  9  5  1  0  0  0  0
 10  6  2  0  0  0  0
 11  7  1  0  0  0  0
 12  8  1  0  0  0  0
 13 21  1  0  0  0  0
 13 15  1  0  0  0  0
 13  9  2  0  0  0  0
 14 12  2  0  0  0  0
 14 10  1  0  0  0  0
 15 11  2  0  0  0  0
 16  8  1  0  0  0  0
 17  9  1  0  0  0  0
 18 10  1  0  0  0  0
 19 11  1  0  0  0  0
 20 14  1  0  0  0  0
 22 15  1  0  0  0  0
 23 22  1  0  0  0  0
 24  1  1  0  0  0  0
M  END
