oh r128 neutral
 OpenBabel10202110183D

 25 27  0  0  0  0  0  0  0  0999 V2000
    4.6652   -0.7001    0.0000 O   0  0  0  0  0  0  0  0  0  0  0  0
   -0.0837   -1.0350    0.0000 N   0  0  0  0  0  0  0  0  0  0  0  0
   -0.2619    1.8031    0.0000 N   0  0  0  0  0  0  0  0  0  0  0  0
    1.0073   -0.2525    0.0000 C   0  0  0  0  0  0  0  0  0  0  0  0
   -1.2770   -0.4166   -0.0000 C   0  0  0  0  0  0  0  0  0  0  0  0
    0.9304    1.1901    0.0000 C   0  0  0  0  0  0  0  0  0  0  0  0
   -1.3579    1.0307    0.0000 C   0  0  0  0  0  0  0  0  0  0  0  0
    2.2809   -0.8834    0.0000 C   0  0  0  0  0  0  0  0  0  0  0  0
   -2.4773   -1.1821    0.0000 C   0  0  0  0  0  0  0  0  0  0  0  0
    2.1427    1.9450    0.0000 C   0  0  0  0  0  0  0  0  0  0  0  0
   -2.6504    1.6449    0.0000 C   0  0  0  0  0  0  0  0  0  0  0  0
    3.4312   -0.1241    0.0000 C   0  0  0  0  0  0  0  0  0  0  0  0
   -3.6956   -0.5439    0.0000 C   0  0  0  0  0  0  0  0  0  0  0  0
    3.3536    1.2989    0.0000 C   0  0  0  0  0  0  0  0  0  0  0  0
   -3.7864    0.8840    0.0000 C   0  0  0  0  0  0  0  0  0  0  0  0
   -2.3968   -2.2659    0.0000 H   0  0  0  0  0  0  0  0  0  0  0  0
    2.0741    3.0272    0.0000 H   0  0  0  0  0  0  0  0  0  0  0  0
   -2.6932    2.7291    0.0000 H   0  0  0  0  0  0  0  0  0  0  0  0
    4.2876    1.8515    0.0000 H   0  0  0  0  0  0  0  0  0  0  0  0
   -4.7736    1.3338    0.0000 H   0  0  0  0  0  0  0  0  0  0  0  0
    4.5590   -1.6642    0.0000 H   0  0  0  0  0  0  0  0  0  0  0  0
    2.3796   -2.2464    0.0000 O   0  0  0  0  0  0  0  0  0  0  0  0
    1.4683   -2.5920    0.0000 H   0  0  0  0  0  0  0  0  0  0  0  0
   -4.8910   -1.2015    0.0000 O   0  0  0  0  0  0  0  0  0  0  0  0
   -4.7467   -2.1578    0.0000 H   0  0  0  0  0  0  0  0  0  0  0  0
  1 12  1  0  0  0  0
  4  2  1  0  0  0  0
  5  2  2  0  0  0  0
  6  4  1  0  0  0  0
  6  3  1  0  0  0  0
  7  5  1  0  0  0  0
  7  3  2  0  0  0  0
  8  4  2  0  0  0  0
  9  5  1  0  0  0  0
 10  6  2  0  0  0  0
 11  7  1  0  0  0  0
 12  8  1  0  0  0  0
 13 24  1  0  0  0  0
 13 15  1  0  0  0  0
 13  9  2  0  0  0  0
 14 12  2  0  0  0  0
 14 10  1  0  0  0  0
 15 11  2  0  0  0  0
 16  9  1  0  0  0  0
 17 10  1  0  0  0  0
 18 11  1  0  0  0  0
 19 14  1  0  0  0  0
 20 15  1  0  0  0  0
 21  1  1  0  0  0  0
 22  8  1  0  0  0  0
 23 22  1  0  0  0  0
 25 24  1  0  0  0  0
M  END
