oh r137 neutral
 OpenBabel10202110183D

 25 27  0  0  0  0  0  0  0  0999 V2000
    0.0475    1.4083    0.0000 N   0  0  0  0  0  0  0  0  0  0  0  0
    0.2498   -1.4222    0.0000 N   0  0  0  0  0  0  0  0  0  0  0  0
   -1.0326    0.6265    0.0000 C   0  0  0  0  0  0  0  0  0  0  0  0
    1.2469    0.8042    0.0000 C   0  0  0  0  0  0  0  0  0  0  0  0
   -0.9496   -0.8150    0.0000 C   0  0  0  0  0  0  0  0  0  0  0  0
    1.3435   -0.6402    0.0000 C   0  0  0  0  0  0  0  0  0  0  0  0
   -2.3256    1.2646    0.0000 C   0  0  0  0  0  0  0  0  0  0  0  0
    2.4434    1.5830    0.0000 C   0  0  0  0  0  0  0  0  0  0  0  0
   -2.1502   -1.5744    0.0000 C   0  0  0  0  0  0  0  0  0  0  0  0
    2.6351   -1.2420    0.0000 C   0  0  0  0  0  0  0  0  0  0  0  0
   -3.4671    0.5064    0.0000 C   0  0  0  0  0  0  0  0  0  0  0  0
    3.6690    0.9742    0.0000 C   0  0  0  0  0  0  0  0  0  0  0  0
   -3.3628   -0.9165    0.0000 C   0  0  0  0  0  0  0  0  0  0  0  0
    3.7615   -0.4529    0.0000 C   0  0  0  0  0  0  0  0  0  0  0  0
    2.3489    2.6642    0.0000 H   0  0  0  0  0  0  0  0  0  0  0  0
   -2.0810   -2.6580    0.0000 H   0  0  0  0  0  0  0  0  0  0  0  0
    2.6918   -2.3271    0.0000 H   0  0  0  0  0  0  0  0  0  0  0  0
    4.5898    1.5478    0.0000 H   0  0  0  0  0  0  0  0  0  0  0  0
   -4.4466    0.9698    0.0000 H   0  0  0  0  0  0  0  0  0  0  0  0
   -2.3735    2.6145    0.0000 O   0  0  0  0  0  0  0  0  0  0  0  0
   -1.4485    2.9264    0.0000 H   0  0  0  0  0  0  0  0  0  0  0  0
   -4.5586   -1.5727    0.0000 O   0  0  0  0  0  0  0  0  0  0  0  0
   -4.4102   -2.5282    0.0000 H   0  0  0  0  0  0  0  0  0  0  0  0
    5.0317   -0.9525    0.0000 O   0  0  0  0  0  0  0  0  0  0  0  0
    5.0091   -1.9193    0.0000 H   0  0  0  0  0  0  0  0  0  0  0  0
  1  4  2  0  0  0  0
  1  3  1  0  0  0  0
  5  3  1  0  0  0  0
  5  2  1  0  0  0  0
  6  4  1  0  0  0  0
  6  2  2  0  0  0  0
  7  3  2  0  0  0  0
  8  4  1  0  0  0  0
  9  5  2  0  0  0  0
 10  6  1  0  0  0  0
 11  7  1  0  0  0  0
 12  8  2  0  0  0  0
 13 22  1  0  0  0  0
 13 11  2  0  0  0  0
 13  9  1  0  0  0  0
 14 12  1  0  0  0  0
 14 10  2  0  0  0  0
 15  8  1  0  0  0  0
 16  9  1  0  0  0  0
 17 10  1  0  0  0  0
 18 12  1  0  0  0  0
 19 11  1  0  0  0  0
 20  7  1  0  0  0  0
 21 20  1  0  0  0  0
 23 22  1  0  0  0  0
 24 14  1  0  0  0  0
 25 24  1  0  0  0  0
M  END
