oh r1236 neutral
 OpenBabel10202110183D

 26 28  0  0  0  0  0  0  0  0999 V2000
   -2.1089    2.5051    0.0000 O   0  0  0  0  0  0  0  0  0  0  0  0
   -4.2947    0.8146    0.0000 O   0  0  0  0  0  0  0  0  0  0  0  0
   -3.9826   -1.8175   -0.0000 O   0  0  0  0  0  0  0  0  0  0  0  0
    0.3971    1.4835    0.0000 N   0  0  0  0  0  0  0  0  0  0  0  0
    0.8187   -1.3147    0.0000 N   0  0  0  0  0  0  0  0  0  0  0  0
    1.6479    0.9839    0.0000 C   0  0  0  0  0  0  0  0  0  0  0  0
    1.8397   -0.4447    0.0000 C   0  0  0  0  0  0  0  0  0  0  0  0
   -0.6207    0.6180    0.0000 C   0  0  0  0  0  0  0  0  0  0  0  0
   -0.4252   -0.8161    0.0000 C   0  0  0  0  0  0  0  0  0  0  0  0
    4.0451    1.2804    0.0000 C   0  0  0  0  0  0  0  0  0  0  0  0
    4.2528   -0.1278    0.0000 C   0  0  0  0  0  0  0  0  0  0  0  0
    2.7868    1.8376    0.0000 C   0  0  0  0  0  0  0  0  0  0  0  0
    3.1732   -0.9800    0.0000 C   0  0  0  0  0  0  0  0  0  0  0  0
   -1.9468    1.1643    0.0000 C   0  0  0  0  0  0  0  0  0  0  0  0
   -1.5628   -1.6688    0.0000 C   0  0  0  0  0  0  0  0  0  0  0  0
   -3.0318    0.3156    0.0000 C   0  0  0  0  0  0  0  0  0  0  0  0
   -2.8140   -1.1027    0.0000 C   0  0  0  0  0  0  0  0  0  0  0  0
    2.6318    2.9110    0.0000 H   0  0  0  0  0  0  0  0  0  0  0  0
   -1.2111    2.8882    0.0000 H   0  0  0  0  0  0  0  0  0  0  0  0
   -4.9219    0.0756    0.0000 H   0  0  0  0  0  0  0  0  0  0  0  0
   -3.8053   -2.7674    0.0000 H   0  0  0  0  0  0  0  0  0  0  0  0
    4.9167    1.9284    0.0000 H   0  0  0  0  0  0  0  0  0  0  0  0
    5.2564   -0.5392    0.0000 H   0  0  0  0  0  0  0  0  0  0  0  0
   -1.4188   -2.7447    0.0000 H   0  0  0  0  0  0  0  0  0  0  0  0
    3.3291   -2.3250    0.0000 O   0  0  0  0  0  0  0  0  0  0  0  0
    2.4327   -2.7100    0.0000 H   0  0  0  0  0  0  0  0  0  0  0  0
  6  4  1  0  0  0  0
  7  6  1  0  0  0  0
  7  5  1  0  0  0  0
  8  4  2  0  0  0  0
  9  8  1  0  0  0  0
  9  5  2  0  0  0  0
 11 10  2  0  0  0  0
 12 10  1  0  0  0  0
 12  6  2  0  0  0  0
 13 11  1  0  0  0  0
 13  7  2  0  0  0  0
 14 16  2  0  0  0  0
 14  1  1  0  0  0  0
 14  8  1  0  0  0  0
 15  9  1  0  0  0  0
 16  2  1  0  0  0  0
 17 16  1  0  0  0  0
 17 15  2  0  0  0  0
 17  3  1  0  0  0  0
 18 12  1  0  0  0  0
 19  1  1  0  0  0  0
 20  2  1  0  0  0  0
 21  3  1  0  0  0  0
 22 10  1  0  0  0  0
 23 11  1  0  0  0  0
 24 15  1  0  0  0  0
 25 13  1  0  0  0  0
 26 25  1  0  0  0  0
M  END
