oh r1238 neutral
 OpenBabel10202110183D

 26 28  0  0  0  0  0  0  0  0999 V2000
   -1.8468    2.5474    0.0000 O   0  0  0  0  0  0  0  0  0  0  0  0
   -4.2785    1.2294    0.0000 O   0  0  0  0  0  0  0  0  0  0  0  0
   -4.3981   -1.4184    0.0000 O   0  0  0  0  0  0  0  0  0  0  0  0
    0.4606    1.1325    0.0000 N   0  0  0  0  0  0  0  0  0  0  0  0
    0.4177   -1.7066    0.0000 N   0  0  0  0  0  0  0  0  0  0  0  0
    1.6085    0.4268    0.0000 C   0  0  0  0  0  0  0  0  0  0  0  0
    1.5733   -1.0200    0.0000 C   0  0  0  0  0  0  0  0  0  0  0  0
   -0.6848    0.4436    0.0000 C   0  0  0  0  0  0  0  0  0  0  0  0
   -0.7208   -1.0020    0.0000 C   0  0  0  0  0  0  0  0  0  0  0  0
    4.0262    0.3755    0.0000 C   0  0  0  0  0  0  0  0  0  0  0  0
    4.0028   -1.0539    0.0000 C   0  0  0  0  0  0  0  0  0  0  0  0
    2.8585    1.1020    0.0000 C   0  0  0  0  0  0  0  0  0  0  0  0
    2.8109   -1.7309    0.0000 C   0  0  0  0  0  0  0  0  0  0  0  0
   -1.9042    1.1964    0.0000 C   0  0  0  0  0  0  0  0  0  0  0  0
   -1.9842   -1.6602    0.0000 C   0  0  0  0  0  0  0  0  0  0  0  0
   -3.1117    0.5337    0.0000 C   0  0  0  0  0  0  0  0  0  0  0  0
   -3.1270   -0.9018    0.0000 C   0  0  0  0  0  0  0  0  0  0  0  0
    2.8789    2.1860    0.0000 H   0  0  0  0  0  0  0  0  0  0  0  0
   -0.8981    2.7774   -0.0000 H   0  0  0  0  0  0  0  0  0  0  0  0
   -5.0148    0.5989    0.0000 H   0  0  0  0  0  0  0  0  0  0  0  0
   -4.3727   -2.3842    0.0000 H   0  0  0  0  0  0  0  0  0  0  0  0
    4.9429   -1.6015    0.0000 H   0  0  0  0  0  0  0  0  0  0  0  0
   -2.0113   -2.7454   -0.0000 H   0  0  0  0  0  0  0  0  0  0  0  0
    2.7742   -2.8154    0.0000 H   0  0  0  0  0  0  0  0  0  0  0  0
    5.2126    1.0554    0.0000 O   0  0  0  0  0  0  0  0  0  0  0  0
    5.9547    0.4370   -0.0000 H   0  0  0  0  0  0  0  0  0  0  0  0
  6  4  1  0  0  0  0
  7  6  1  0  0  0  0
  7  5  1  0  0  0  0
  8  4  2  0  0  0  0
  9  8  1  0  0  0  0
  9  5  2  0  0  0  0
 11 10  2  0  0  0  0
 12 10  1  0  0  0  0
 12  6  2  0  0  0  0
 13 11  1  0  0  0  0
 13  7  2  0  0  0  0
 14 16  2  0  0  0  0
 14  1  1  0  0  0  0
 14  8  1  0  0  0  0
 15  9  1  0  0  0  0
 16  2  1  0  0  0  0
 17 16  1  0  0  0  0
 17 15  2  0  0  0  0
 17  3  1  0  0  0  0
 18 12  1  0  0  0  0
 19  1  1  0  0  0  0
 20  2  1  0  0  0  0
 21  3  1  0  0  0  0
 22 11  1  0  0  0  0
 23 15  1  0  0  0  0
 24 13  1  0  0  0  0
 25 10  1  0  0  0  0
 26 25  1  0  0  0  0
M  END
