oh r1278 neutral
 OpenBabel10202110183D

 26 28  0  0  0  0  0  0  0  0999 V2000
    2.7896    2.2049    0.0001 O   0  0  0  0  0  0  0  0  0  0  0  0
    5.0074    0.6056    0.0002 O   0  0  0  0  0  0  0  0  0  0  0  0
    0.3068    1.1148    0.0001 N   0  0  0  0  0  0  0  0  0  0  0  0
   -0.0367   -1.7035   -0.0000 N   0  0  0  0  0  0  0  0  0  0  0  0
   -0.9186    0.5711    0.0001 C   0  0  0  0  0  0  0  0  0  0  0  0
   -1.0848   -0.8709   -0.0000 C   0  0  0  0  0  0  0  0  0  0  0  0
    1.3559    0.2756    0.0001 C   0  0  0  0  0  0  0  0  0  0  0  0
    1.1914   -1.1570   -0.0000 C   0  0  0  0  0  0  0  0  0  0  0  0
   -3.3242    0.8567   -0.0001 C   0  0  0  0  0  0  0  0  0  0  0  0
   -3.4866   -0.5748    0.0000 C   0  0  0  0  0  0  0  0  0  0  0  0
   -2.0709    1.4096   -0.0001 C   0  0  0  0  0  0  0  0  0  0  0  0
   -2.4076   -1.4128    0.0000 C   0  0  0  0  0  0  0  0  0  0  0  0
    2.6611    0.8566    0.0000 C   0  0  0  0  0  0  0  0  0  0  0  0
    2.3551   -1.9763   -0.0001 C   0  0  0  0  0  0  0  0  0  0  0  0
    3.7681    0.0283   -0.0000 C   0  0  0  0  0  0  0  0  0  0  0  0
    3.5967   -1.3862   -0.0000 C   0  0  0  0  0  0  0  0  0  0  0  0
   -1.9459    2.4864   -0.0002 H   0  0  0  0  0  0  0  0  0  0  0  0
    1.8823    2.5634    0.0001 H   0  0  0  0  0  0  0  0  0  0  0  0
    5.6884   -0.0792   -0.0014 H   0  0  0  0  0  0  0  0  0  0  0  0
    2.2350   -3.0538   -0.0002 H   0  0  0  0  0  0  0  0  0  0  0  0
    4.4892   -2.0091    0.0001 H   0  0  0  0  0  0  0  0  0  0  0  0
   -2.5185   -2.4934    0.0001 H   0  0  0  0  0  0  0  0  0  0  0  0
   -4.7990   -0.9755    0.0001 O   0  0  0  0  0  0  0  0  0  0  0  0
   -4.8655   -1.9395    0.0008 H   0  0  0  0  0  0  0  0  0  0  0  0
   -4.4292    1.6454   -0.0002 O   0  0  0  0  0  0  0  0  0  0  0  0
   -5.2195    1.0833   -0.0004 H   0  0  0  0  0  0  0  0  0  0  0  0
  1 18  1  0  0  0  0
  4  6  1  0  0  0  0
  5  3  1  0  0  0  0
  6 12  2  0  0  0  0
  6  5  1  0  0  0  0
  7  3  2  0  0  0  0
  8  4  2  0  0  0  0
  8  7  1  0  0  0  0
  9 11  1  0  0  0  0
  9 10  2  0  0  0  0
 10 23  1  0  0  0  0
 11  5  2  0  0  0  0
 12 10  1  0  0  0  0
 12 22  1  0  0  0  0
 13  7  1  0  0  0  0
 13  1  1  0  0  0  0
 14  8  1  0  0  0  0
 14 16  2  0  0  0  0
 15 13  2  0  0  0  0
 15  2  1  0  0  0  0
 16 15  1  0  0  0  0
 16 21  1  0  0  0  0
 17 11  1  0  0  0  0
 19  2  1  0  0  0  0
 20 14  1  0  0  0  0
 23 24  1  0  0  0  0
 25  9  1  0  0  0  0
 26 25  1  0  0  0  0
M  END
