ch2=ch r1 neutral
 OpenBabel10202110183D

 26 28  0  0  0  0  0  0  0  0999 V2000
   -2.6130    1.8104   -0.0906 C   0  0  0  0  0  0  0  0  0  0  0  0
    0.1039    1.0348   -0.0433 N   0  0  0  0  0  0  0  0  0  0  0  0
    0.8888   -1.6892    0.0307 N   0  0  0  0  0  0  0  0  0  0  0  0
   -0.8111    0.0558   -0.0333 C   0  0  0  0  0  0  0  0  0  0  0  0
   -0.4064   -1.3360    0.0042 C   0  0  0  0  0  0  0  0  0  0  0  0
    1.3990    0.6841   -0.0184 C   0  0  0  0  0  0  0  0  0  0  0  0
    1.7988   -0.7044    0.0206 C   0  0  0  0  0  0  0  0  0  0  0  0
   -2.2203    0.3924   -0.0567 C   0  0  0  0  0  0  0  0  0  0  0  0
   -1.4025   -2.3572    0.0133 C   0  0  0  0  0  0  0  0  0  0  0  0
   -3.1311   -0.6472   -0.0618 C   0  0  0  0  0  0  0  0  0  0  0  0
    2.4070    1.6972   -0.0304 C   0  0  0  0  0  0  0  0  0  0  0  0
    3.1918   -1.0257    0.0473 C   0  0  0  0  0  0  0  0  0  0  0  0
   -2.7294   -2.0105   -0.0203 C   0  0  0  0  0  0  0  0  0  0  0  0
    3.7333    1.3486   -0.0042 C   0  0  0  0  0  0  0  0  0  0  0  0
    4.1289   -0.0247    0.0350 C   0  0  0  0  0  0  0  0  0  0  0  0
   -3.8324    2.3039    0.1746 C   0  0  0  0  0  0  0  0  0  0  0  0
   -1.0718   -3.3902    0.0415 H   0  0  0  0  0  0  0  0  0  0  0  0
   -4.1922   -0.4241   -0.1124 H   0  0  0  0  0  0  0  0  0  0  0  0
    2.0841    2.7331   -0.0593 H   0  0  0  0  0  0  0  0  0  0  0  0
    3.4685   -2.0748    0.0770 H   0  0  0  0  0  0  0  0  0  0  0  0
   -3.4933   -2.7826   -0.0233 H   0  0  0  0  0  0  0  0  0  0  0  0
    4.4977    2.1200   -0.0128 H   0  0  0  0  0  0  0  0  0  0  0  0
    5.1865   -0.2704    0.0553 H   0  0  0  0  0  0  0  0  0  0  0  0
   -1.8097    2.4976   -0.3377 H   0  0  0  0  0  0  0  0  0  0  0  0
   -4.6716    1.6812    0.4732 H   0  0  0  0  0  0  0  0  0  0  0  0
   -4.0224    3.3705    0.1103 H   0  0  0  0  0  0  0  0  0  0  0  0
  1  8  1  0  0  0  0
  1 16  2  0  0  0  0
  2  4  2  0  0  0  0
  2  6  1  0  0  0  0
  4  5  1  0  0  0  0
  5  9  1  0  0  0  0
  5  3  2  0  0  0  0
  6  7  1  0  0  0  0
  7  3  1  0  0  0  0
  7 12  2  0  0  0  0
  8  4  1  0  0  0  0
  9 17  1  0  0  0  0
 10  8  2  0  0  0  0
 10 13  1  0  0  0  0
 11  6  2  0  0  0  0
 11 14  1  0  0  0  0
 12 20  1  0  0  0  0
 13  9  2  0  0  0  0
 14 15  2  0  0  0  0
 15 12  1  0  0  0  0
 15 23  1  0  0  0  0
 16 25  1  0  0  0  0
 18 10  1  0  0  0  0
 19 11  1  0  0  0  0
 21 13  1  0  0  0  0
 22 14  1  0  0  0  0
 24  1  1  0  0  0  0
 26 16  1  0  0  0  0
M  END
