oh r2378 neutral
 OpenBabel10202110183D

 26 28  0  0  0  0  0  0  0  0999 V2000
    4.8225   -1.2499   -0.0000 O   0  0  0  0  0  0  0  0  0  0  0  0
    4.7596    1.4004    0.0001 O   0  0  0  0  0  0  0  0  0  0  0  0
   -4.7596   -1.4004    0.0001 O   0  0  0  0  0  0  0  0  0  0  0  0
   -4.8225    1.2498   -0.0002 O   0  0  0  0  0  0  0  0  0  0  0  0
    0.0063   -1.4221    0.0000 N   0  0  0  0  0  0  0  0  0  0  0  0
   -0.0063    1.4221   -0.0000 N   0  0  0  0  0  0  0  0  0  0  0  0
    1.1462   -0.7166   -0.0000 C   0  0  0  0  0  0  0  0  0  0  0  0
    1.1454    0.7309   -0.0000 C   0  0  0  0  0  0  0  0  0  0  0  0
   -1.1453   -0.7309   -0.0000 C   0  0  0  0  0  0  0  0  0  0  0  0
   -1.1462    0.7166   -0.0000 C   0  0  0  0  0  0  0  0  0  0  0  0
    2.3965   -1.4065    0.0000 C   0  0  0  0  0  0  0  0  0  0  0  0
    2.3865    1.4325    0.0000 C   0  0  0  0  0  0  0  0  0  0  0  0
   -2.3866   -1.4326    0.0000 C   0  0  0  0  0  0  0  0  0  0  0  0
   -2.3965    1.4065   -0.0001 C   0  0  0  0  0  0  0  0  0  0  0  0
    3.5656   -0.6967   -0.0000 C   0  0  0  0  0  0  0  0  0  0  0  0
    3.5696    0.7417    0.0000 C   0  0  0  0  0  0  0  0  0  0  0  0
   -3.5696   -0.7417    0.0000 C   0  0  0  0  0  0  0  0  0  0  0  0
   -3.5656    0.6967   -0.0001 C   0  0  0  0  0  0  0  0  0  0  0  0
    2.3840   -2.4929    0.0000 H   0  0  0  0  0  0  0  0  0  0  0  0
    2.3815    2.5166    0.0000 H   0  0  0  0  0  0  0  0  0  0  0  0
   -2.3815   -2.5166    0.0001 H   0  0  0  0  0  0  0  0  0  0  0  0
   -2.3840    2.4929   -0.0002 H   0  0  0  0  0  0  0  0  0  0  0  0
    4.7725   -2.2147   -0.0006 H   0  0  0  0  0  0  0  0  0  0  0  0
    5.4793    0.7508    0.0001 H   0  0  0  0  0  0  0  0  0  0  0  0
   -5.4793   -0.7508    0.0004 H   0  0  0  0  0  0  0  0  0  0  0  0
   -4.7725    2.2147    0.0013 H   0  0  0  0  0  0  0  0  0  0  0  0
  1 15  1  0  0  0  0
  2 24  1  0  0  0  0
  3 25  1  0  0  0  0
  4 18  1  0  0  0  0
  4 26  1  0  0  0  0
  6 10  1  0  0  0  0
  6  8  2  0  0  0  0
  7  5  2  0  0  0  0
  7 11  1  0  0  0  0
  8  7  1  0  0  0  0
  8 12  1  0  0  0  0
  9  5  1  0  0  0  0
  9 13  1  0  0  0  0
 10  9  2  0  0  0  0
 12 16  2  0  0  0  0
 12 20  1  0  0  0  0
 13 21  1  0  0  0  0
 14 18  2  0  0  0  0
 14 10  1  0  0  0  0
 15 11  2  0  0  0  0
 15 16  1  0  0  0  0
 16  2  1  0  0  0  0
 17 13  2  0  0  0  0
 17  3  1  0  0  0  0
 18 17  1  0  0  0  0
 19 11  1  0  0  0  0
 22 14  1  0  0  0  0
 23  1  1  0  0  0  0
M  END
