oh r12346789 neutral
 OpenBabel10202110183D

 30 32  0  0  0  0  0  0  0  0999 V2000
   -2.3929    2.8019    0.0000 O   0  0  0  0  0  0  0  0  0  0  0  0
   -4.7614    1.3941    0.0000 O   0  0  0  0  0  0  0  0  0  0  0  0
   -4.7871   -1.2907    0.0000 O   0  0  0  0  0  0  0  0  0  0  0  0
    0.0000    1.4170    0.0000 N   0  0  0  0  0  0  0  0  0  0  0  0
    0.0000   -1.4164    0.0000 N   0  0  0  0  0  0  0  0  0  0  0  0
    1.1517    0.7276    0.0000 C   0  0  0  0  0  0  0  0  0  0  0  0
    1.1474   -0.7201    0.0000 C   0  0  0  0  0  0  0  0  0  0  0  0
   -1.1517    0.7276    0.0000 C   0  0  0  0  0  0  0  0  0  0  0  0
   -1.1474   -0.7201    0.0000 C   0  0  0  0  0  0  0  0  0  0  0  0
    3.5738    0.7382    0.0000 C   0  0  0  0  0  0  0  0  0  0  0  0
    3.5587   -0.6921    0.0000 C   0  0  0  0  0  0  0  0  0  0  0  0
    2.3866    1.4430    0.0000 C   0  0  0  0  0  0  0  0  0  0  0  0
    2.3870   -1.4090    0.0000 C   0  0  0  0  0  0  0  0  0  0  0  0
   -2.3866    1.4430    0.0000 C   0  0  0  0  0  0  0  0  0  0  0  0
   -2.3870   -1.4090    0.0000 C   0  0  0  0  0  0  0  0  0  0  0  0
   -3.5738    0.7382    0.0000 C   0  0  0  0  0  0  0  0  0  0  0  0
   -3.5587   -0.6921    0.0000 C   0  0  0  0  0  0  0  0  0  0  0  0
   -1.4645    3.0878    0.0000 H   0  0  0  0  0  0  0  0  0  0  0  0
   -5.4788    0.7417    0.0000 H   0  0  0  0  0  0  0  0  0  0  0  0
   -4.6740   -2.2536    0.0000 H   0  0  0  0  0  0  0  0  0  0  0  0
    2.4561   -2.7788    0.0000 O   0  0  0  0  0  0  0  0  0  0  0  0
    1.5455   -3.1153    0.0000 H   0  0  0  0  0  0  0  0  0  0  0  0
    4.7871   -1.2907    0.0000 O   0  0  0  0  0  0  0  0  0  0  0  0
    4.6740   -2.2536    0.0000 H   0  0  0  0  0  0  0  0  0  0  0  0
    4.7614    1.3941    0.0000 O   0  0  0  0  0  0  0  0  0  0  0  0
    5.4788    0.7417    0.0000 H   0  0  0  0  0  0  0  0  0  0  0  0
   -2.4561   -2.7788   -0.0000 O   0  0  0  0  0  0  0  0  0  0  0  0
   -1.5455   -3.1153    0.0000 H   0  0  0  0  0  0  0  0  0  0  0  0
    2.3929    2.8019    0.0000 O   0  0  0  0  0  0  0  0  0  0  0  0
    1.4645    3.0878    0.0000 H   0  0  0  0  0  0  0  0  0  0  0  0
  1 14  1  0  0  0  0
  6  4  1  0  0  0  0
  7  6  1  0  0  0  0
  7  5  1  0  0  0  0
  8  4  2  0  0  0  0
  9  8  1  0  0  0  0
  9  5  2  0  0  0  0
 11 10  2  0  0  0  0
 12 10  1  0  0  0  0
 12  6  2  0  0  0  0
 13 11  1  0  0  0  0
 13  7  2  0  0  0  0
 14  8  1  0  0  0  0
 15  9  1  0  0  0  0
 16 17  1  0  0  0  0
 16 14  2  0  0  0  0
 16  2  1  0  0  0  0
 17 15  2  0  0  0  0
 17  3  1  0  0  0  0
 18  1  1  0  0  0  0
 19  2  1  0  0  0  0
 20  3  1  0  0  0  0
 21 13  1  0  0  0  0
 22 21  1  0  0  0  0
 23 11  1  0  0  0  0
 24 23  1  0  0  0  0
 25 10  1  0  0  0  0
 26 25  1  0  0  0  0
 27 15  1  0  0  0  0
 28 27  1  0  0  0  0
 29 12  1  0  0  0  0
 30 29  1  0  0  0  0
M  END
