no2 r12 neutral
 OpenBabel10202110183D

 26 28  0  0  0  0  0  0  0  0999 V2000
   -1.6617   -2.3059    1.0952 O   0  0  0  0  0  0  0  0  0  0  0  0
   -1.6618   -2.3059   -1.0952 O   0  0  0  0  0  0  0  0  0  0  0  0
    0.9964   -0.9234   -0.0000 N   0  0  0  0  0  0  0  0  0  0  0  0
    1.7114    1.8271    0.0000 N   0  0  0  0  0  0  0  0  0  0  0  0
   -1.5951   -1.7662   -0.0000 N   0  0  0  0  0  0  0  0  0  0  0  0
    0.0724    0.0444    0.0000 C   0  0  0  0  0  0  0  0  0  0  0  0
    2.6437    0.8640    0.0000 C   0  0  0  0  0  0  0  0  0  0  0  0
    0.4263    1.4423   -0.0000 C   0  0  0  0  0  0  0  0  0  0  0  0
    2.2787   -0.5412   -0.0000 C   0  0  0  0  0  0  0  0  0  0  0  0
   -1.3147   -0.3119    0.0000 C   0  0  0  0  0  0  0  0  0  0  0  0
    4.0275    1.2191    0.0000 C   0  0  0  0  0  0  0  0  0  0  0  0
   -0.6083    2.4259   -0.0000 C   0  0  0  0  0  0  0  0  0  0  0  0
    3.3090   -1.5321   -0.0000 C   0  0  0  0  0  0  0  0  0  0  0  0
   -2.2782    0.6683    0.0000 C   0  0  0  0  0  0  0  0  0  0  0  0
    4.9847    0.2379    0.0000 C   0  0  0  0  0  0  0  0  0  0  0  0
   -1.9225    2.0485   -0.0000 C   0  0  0  0  0  0  0  0  0  0  0  0
    4.6239   -1.1472   -0.0000 C   0  0  0  0  0  0  0  0  0  0  0  0
   -0.3189    3.4710   -0.0000 H   0  0  0  0  0  0  0  0  0  0  0  0
    3.0090   -2.5747   -0.0000 H   0  0  0  0  0  0  0  0  0  0  0  0
    6.0364    0.5081    0.0000 H   0  0  0  0  0  0  0  0  0  0  0  0
   -2.7249    2.7748   -0.0000 H   0  0  0  0  0  0  0  0  0  0  0  0
    5.4088   -1.8971   -0.0000 H   0  0  0  0  0  0  0  0  0  0  0  0
    4.2809    2.2741    0.0000 H   0  0  0  0  0  0  0  0  0  0  0  0
   -3.7172    0.3397    0.0000 N   0  0  0  0  0  0  0  0  0  0  0  0
   -4.5080    1.2831   -0.0000 O   0  0  0  0  0  0  0  0  0  0  0  0
   -4.0329   -0.8468    0.0001 O   0  0  0  0  0  0  0  0  0  0  0  0
  2  5  2  0  0  0  0
  3  6  1  0  0  0  0
  5 10  1  0  0  0  0
  5  1  2  0  0  0  0
  6  8  2  0  0  0  0
  6 10  1  0  0  0  0
  7  4  2  0  0  0  0
  7 11  1  0  0  0  0
  8  4  1  0  0  0  0
  9  3  2  0  0  0  0
  9  7  1  0  0  0  0
 11 23  1  0  0  0  0
 12 16  2  0  0  0  0
 12  8  1  0  0  0  0
 13  9  1  0  0  0  0
 13 17  2  0  0  0  0
 14 10  2  0  0  0  0
 14 24  1  0  0  0  0
 15 11  2  0  0  0  0
 15 20  1  0  0  0  0
 16 14  1  0  0  0  0
 17 15  1  0  0  0  0
 18 12  1  0  0  0  0
 19 13  1  0  0  0  0
 21 16  1  0  0  0  0
 22 17  1  0  0  0  0
 24 26  2  0  0  0  0
 25 24  2  0  0  0  0
M  END
