no2 r16 neutral
 OpenBabel10202110183D

 26 28  0  0  0  0  0  0  0  0999 V2000
    4.6377   -0.9680   -0.6605 O   0  0  0  0  0  0  0  0  0  0  0  0
    3.4155   -1.7636    0.9689 O   0  0  0  0  0  0  0  0  0  0  0  0
    0.8022   -1.1681   -0.0432 N   0  0  0  0  0  0  0  0  0  0  0  0
   -0.8022    1.1681   -0.0433 N   0  0  0  0  0  0  0  0  0  0  0  0
    3.6709   -0.9323    0.1039 N   0  0  0  0  0  0  0  0  0  0  0  0
    1.3509    0.0487   -0.0100 C   0  0  0  0  0  0  0  0  0  0  0  0
   -1.3509   -0.0486   -0.0100 C   0  0  0  0  0  0  0  0  0  0  0  0
    0.5355    1.2442   -0.0487 C   0  0  0  0  0  0  0  0  0  0  0  0
   -0.5354   -1.2442   -0.0487 C   0  0  0  0  0  0  0  0  0  0  0  0
    2.7742    0.2302   -0.0087 C   0  0  0  0  0  0  0  0  0  0  0  0
   -2.7742   -0.2302   -0.0088 C   0  0  0  0  0  0  0  0  0  0  0  0
    1.1549    2.5308   -0.1089 C   0  0  0  0  0  0  0  0  0  0  0  0
   -1.1549   -2.5308   -0.1089 C   0  0  0  0  0  0  0  0  0  0  0  0
    3.3423    1.4728   -0.0959 C   0  0  0  0  0  0  0  0  0  0  0  0
   -3.3423   -1.4728   -0.0959 C   0  0  0  0  0  0  0  0  0  0  0  0
    2.5211    2.6365   -0.1368 C   0  0  0  0  0  0  0  0  0  0  0  0
   -2.5211   -2.6365   -0.1368 C   0  0  0  0  0  0  0  0  0  0  0  0
    0.5063    3.4000   -0.1317 H   0  0  0  0  0  0  0  0  0  0  0  0
   -0.5063   -3.4000   -0.1316 H   0  0  0  0  0  0  0  0  0  0  0  0
   -4.4227   -1.5613   -0.1214 H   0  0  0  0  0  0  0  0  0  0  0  0
    2.9959    3.6108   -0.1850 H   0  0  0  0  0  0  0  0  0  0  0  0
   -2.9959   -3.6108   -0.1850 H   0  0  0  0  0  0  0  0  0  0  0  0
    4.4227    1.5613   -0.1213 H   0  0  0  0  0  0  0  0  0  0  0  0
   -3.6710    0.9323    0.1039 N   0  0  0  0  0  0  0  0  0  0  0  0
   -3.4154    1.7637    0.9688 O   0  0  0  0  0  0  0  0  0  0  0  0
   -4.6379    0.9679   -0.6603 O   0  0  0  0  0  0  0  0  0  0  0  0
  1  5  2  0  0  0  0
  3  6  1  0  0  0  0
  4  7  2  0  0  0  0
  5  2  2  0  0  0  0
  6 10  1  0  0  0  0
  7 11  1  0  0  0  0
  8  4  1  0  0  0  0
  8  6  2  0  0  0  0
  9  3  2  0  0  0  0
  9  7  1  0  0  0  0
 10  5  1  0  0  0  0
 11 24  1  0  0  0  0
 12  8  1  0  0  0  0
 13  9  1  0  0  0  0
 14 10  2  0  0  0  0
 15 11  2  0  0  0  0
 16 12  2  0  0  0  0
 16 14  1  0  0  0  0
 17 13  2  0  0  0  0
 17 15  1  0  0  0  0
 18 12  1  0  0  0  0
 19 13  1  0  0  0  0
 20 15  1  0  0  0  0
 21 16  1  0  0  0  0
 22 17  1  0  0  0  0
 23 14  1  0  0  0  0
 24 25  2  0  0  0  0
 26 24  2  0  0  0  0
M  END
