no2 r19 neutral
 OpenBabel10202110183D

 26 28  0  0  0  0  0  0  0  0999 V2000
   -3.2435   -2.4059    0.5973 O   0  0  0  0  0  0  0  0  0  0  0  0
   -1.8315   -2.3366   -1.0723 O   0  0  0  0  0  0  0  0  0  0  0  0
    3.2435   -2.4060   -0.5974 O   0  0  0  0  0  0  0  0  0  0  0  0
    1.8314   -2.3366    1.0723 O   0  0  0  0  0  0  0  0  0  0  0  0
    0.0000   -0.3864   -0.0000 N   0  0  0  0  0  0  0  0  0  0  0  0
    0.0000    2.4487    0.0000 N   0  0  0  0  0  0  0  0  0  0  0  0
   -2.4893   -1.8163   -0.1784 N   0  0  0  0  0  0  0  0  0  0  0  0
    2.4893   -1.8163    0.1784 N   0  0  0  0  0  0  0  0  0  0  0  0
   -1.1395    0.3085   -0.0296 C   0  0  0  0  0  0  0  0  0  0  0  0
    1.1395    0.3085    0.0296 C   0  0  0  0  0  0  0  0  0  0  0  0
   -1.1472    1.7556    0.0102 C   0  0  0  0  0  0  0  0  0  0  0  0
    1.1472    1.7556   -0.0101 C   0  0  0  0  0  0  0  0  0  0  0  0
   -2.4131   -0.3504   -0.0489 C   0  0  0  0  0  0  0  0  0  0  0  0
    2.4132   -0.3504    0.0489 C   0  0  0  0  0  0  0  0  0  0  0  0
   -2.3889    2.4619    0.0589 C   0  0  0  0  0  0  0  0  0  0  0  0
    2.3889    2.4619   -0.0589 C   0  0  0  0  0  0  0  0  0  0  0  0
   -3.5873    0.3483    0.0316 C   0  0  0  0  0  0  0  0  0  0  0  0
    3.5873    0.3483   -0.0317 C   0  0  0  0  0  0  0  0  0  0  0  0
   -3.5731    1.7726    0.0778 C   0  0  0  0  0  0  0  0  0  0  0  0
    3.5731    1.7726   -0.0779 C   0  0  0  0  0  0  0  0  0  0  0  0
   -2.3514    3.5459    0.0849 H   0  0  0  0  0  0  0  0  0  0  0  0
    2.3515    3.5458   -0.0849 H   0  0  0  0  0  0  0  0  0  0  0  0
   -4.5267   -0.1930    0.0478 H   0  0  0  0  0  0  0  0  0  0  0  0
    4.5267   -0.1931   -0.0478 H   0  0  0  0  0  0  0  0  0  0  0  0
   -4.5179    2.3043    0.1218 H   0  0  0  0  0  0  0  0  0  0  0  0
    4.5179    2.3043   -0.1219 H   0  0  0  0  0  0  0  0  0  0  0  0
  2  7  2  0  0  0  0
  3  8  2  0  0  0  0
  5 10  1  0  0  0  0
  6 11  2  0  0  0  0
  7 13  1  0  0  0  0
  7  1  2  0  0  0  0
  8  4  2  0  0  0  0
  9  5  2  0  0  0  0
  9 11  1  0  0  0  0
 10 14  1  0  0  0  0
 11 15  1  0  0  0  0
 12  6  1  0  0  0  0
 12 10  2  0  0  0  0
 13  9  1  0  0  0  0
 13 17  2  0  0  0  0
 14  8  1  0  0  0  0
 15 19  2  0  0  0  0
 15 21  1  0  0  0  0
 16 12  1  0  0  0  0
 17 23  1  0  0  0  0
 17 19  1  0  0  0  0
 18 14  2  0  0  0  0
 19 25  1  0  0  0  0
 20 16  2  0  0  0  0
 20 18  1  0  0  0  0
 22 16  1  0  0  0  0
 24 18  1  0  0  0  0
 26 20  1  0  0  0  0
M  END
