no2 r123 neutral
 OpenBabel10202110183D

 28 30  0  0  0  0  0  0  0  0999 V2000
    1.0555    2.9208    1.0526 O   0  0  0  0  0  0  0  0  0  0  0  0
    0.4176    2.9697   -1.0441 O   0  0  0  0  0  0  0  0  0  0  0  0
   -1.7002    1.0597   -0.0105 N   0  0  0  0  0  0  0  0  0  0  0  0
   -1.8357   -1.7811   -0.0054 N   0  0  0  0  0  0  0  0  0  0  0  0
    0.7346    2.4015   -0.0111 N   0  0  0  0  0  0  0  0  0  0  0  0
   -0.6003    0.3033   -0.0340 C   0  0  0  0  0  0  0  0  0  0  0  0
   -2.9465   -1.0316    0.0033 C   0  0  0  0  0  0  0  0  0  0  0  0
   -0.6609   -1.1355   -0.0166 C   0  0  0  0  0  0  0  0  0  0  0  0
   -2.8776    0.4197    0.0072 C   0  0  0  0  0  0  0  0  0  0  0  0
    0.6934    0.9218   -0.0382 C   0  0  0  0  0  0  0  0  0  0  0  0
   -4.2261   -1.6664    0.0163 C   0  0  0  0  0  0  0  0  0  0  0  0
    0.5480   -1.8918   -0.0180 C   0  0  0  0  0  0  0  0  0  0  0  0
   -4.0884    1.1756    0.0291 C   0  0  0  0  0  0  0  0  0  0  0  0
    1.8399    0.1774   -0.0089 C   0  0  0  0  0  0  0  0  0  0  0  0
   -5.3647   -0.9036    0.0346 C   0  0  0  0  0  0  0  0  0  0  0  0
    1.7531   -1.2490   -0.0197 C   0  0  0  0  0  0  0  0  0  0  0  0
   -5.2954    0.5257    0.0419 C   0  0  0  0  0  0  0  0  0  0  0  0
   -4.0117    2.2577    0.0320 H   0  0  0  0  0  0  0  0  0  0  0  0
   -6.3382   -1.3839    0.0448 H   0  0  0  0  0  0  0  0  0  0  0  0
   -6.2179    1.0980    0.0569 H   0  0  0  0  0  0  0  0  0  0  0  0
   -4.2555   -2.7509    0.0124 H   0  0  0  0  0  0  0  0  0  0  0  0
    3.1466    0.8525    0.1584 N   0  0  0  0  0  0  0  0  0  0  0  0
    3.8145    0.4840    1.1168 O   0  0  0  0  0  0  0  0  0  0  0  0
    3.4266    1.7351   -0.6411 O   0  0  0  0  0  0  0  0  0  0  0  0
    0.4983   -2.9742   -0.0377 H   0  0  0  0  0  0  0  0  0  0  0  0
    2.9712   -2.0719   -0.1601 N   0  0  0  0  0  0  0  0  0  0  0  0
    2.9627   -3.1812    0.3638 O   0  0  0  0  0  0  0  0  0  0  0  0
    3.8810   -1.5966   -0.8341 O   0  0  0  0  0  0  0  0  0  0  0  0
  2  5  2  0  0  0  0
  3  9  1  0  0  0  0
  4  7  1  0  0  0  0
  5  1  2  0  0  0  0
  6  8  1  0  0  0  0
  6  3  2  0  0  0  0
  7  9  2  0  0  0  0
  7 11  1  0  0  0  0
  8  4  2  0  0  0  0
  9 13  1  0  0  0  0
 10  6  1  0  0  0  0
 10  5  1  0  0  0  0
 10 14  2  0  0  0  0
 11 15  2  0  0  0  0
 12  8  1  0  0  0  0
 13 18  1  0  0  0  0
 13 17  2  0  0  0  0
 14 22  1  0  0  0  0
 15 17  1  0  0  0  0
 15 19  1  0  0  0  0
 16 12  2  0  0  0  0
 16 14  1  0  0  0  0
 17 20  1  0  0  0  0
 21 11  1  0  0  0  0
 22 23  2  0  0  0  0
 24 22  2  0  0  0  0
 25 12  1  0  0  0  0
 26 16  1  0  0  0  0
 26 27  2  0  0  0  0
 28 26  2  0  0  0  0
M  END
