no2 r237 neutral
 OpenBabel10202110183D

 28 30  0  0  0  0  0  0  0  0999 V2000
   -0.8219    1.1215   -0.0123 N   0  0  0  0  0  0  0  0  0  0  0  0
   -0.5271   -1.7132    0.0221 N   0  0  0  0  0  0  0  0  0  0  0  0
    0.3845    0.5412   -0.0070 C   0  0  0  0  0  0  0  0  0  0  0  0
   -1.7386   -1.1367    0.0153 C   0  0  0  0  0  0  0  0  0  0  0  0
    0.5333   -0.8953    0.0141 C   0  0  0  0  0  0  0  0  0  0  0  0
   -1.8860    0.3043   -0.0033 C   0  0  0  0  0  0  0  0  0  0  0  0
    1.5529    1.3650   -0.0044 C   0  0  0  0  0  0  0  0  0  0  0  0
   -2.9087   -1.9575    0.0255 C   0  0  0  0  0  0  0  0  0  0  0  0
    1.8472   -1.4586    0.0081 C   0  0  0  0  0  0  0  0  0  0  0  0
   -3.1943    0.8737   -0.0115 C   0  0  0  0  0  0  0  0  0  0  0  0
    2.7890    0.7869    0.0055 C   0  0  0  0  0  0  0  0  0  0  0  0
   -4.1538   -1.3886    0.0173 C   0  0  0  0  0  0  0  0  0  0  0  0
    2.9367   -0.6368   -0.0048 C   0  0  0  0  0  0  0  0  0  0  0  0
   -4.2726    0.0317   -0.0014 C   0  0  0  0  0  0  0  0  0  0  0  0
   -3.3118    1.9502   -0.0255 H   0  0  0  0  0  0  0  0  0  0  0  0
   -5.0554   -1.9880    0.0243 H   0  0  0  0  0  0  0  0  0  0  0  0
   -2.7752   -3.0337    0.0398 H   0  0  0  0  0  0  0  0  0  0  0  0
    3.9585    1.6719    0.1759 N   0  0  0  0  0  0  0  0  0  0  0  0
    4.8152    1.2940    0.9702 O   0  0  0  0  0  0  0  0  0  0  0  0
    3.9565    2.7329   -0.4393 O   0  0  0  0  0  0  0  0  0  0  0  0
    1.9618   -2.5362   -0.0140 H   0  0  0  0  0  0  0  0  0  0  0  0
    4.2630   -1.2627   -0.1808 N   0  0  0  0  0  0  0  0  0  0  0  0
    4.4898   -2.2891    0.4507 O   0  0  0  0  0  0  0  0  0  0  0  0
    5.0104   -0.7303   -0.9962 O   0  0  0  0  0  0  0  0  0  0  0  0
    1.4416    2.4430    0.0171 H   0  0  0  0  0  0  0  0  0  0  0  0
   -5.6318    0.6200   -0.0099 N   0  0  0  0  0  0  0  0  0  0  0  0
   -5.7252    1.8454   -0.0234 O   0  0  0  0  0  0  0  0  0  0  0  0
   -6.5821   -0.1619   -0.0029 O   0  0  0  0  0  0  0  0  0  0  0  0
  1  3  2  0  0  0  0
  1  6  1  0  0  0  0
  3  7  1  0  0  0  0
  3  5  1  0  0  0  0
  4  2  1  0  0  0  0
  4  8  1  0  0  0  0
  5  2  2  0  0  0  0
  6  4  2  0  0  0  0
  7 11  2  0  0  0  0
  7 25  1  0  0  0  0
  8 17  1  0  0  0  0
  9  5  1  0  0  0  0
 10  6  1  0  0  0  0
 10 14  2  0  0  0  0
 11 18  1  0  0  0  0
 12 16  1  0  0  0  0
 12  8  2  0  0  0  0
 13 11  1  0  0  0  0
 13  9  2  0  0  0  0
 14 12  1  0  0  0  0
 15 10  1  0  0  0  0
 18 19  2  0  0  0  0
 20 18  2  0  0  0  0
 21  9  1  0  0  0  0
 22 13  1  0  0  0  0
 22 23  2  0  0  0  0
 24 22  2  0  0  0  0
 26 28  2  0  0  0  0
 26 14  1  0  0  0  0
 27 26  2  0  0  0  0
M  END
