no2 r1246 neutral
 OpenBabel10202110183D

 30 32  0  0  0  0  0  0  0  0999 V2000
   -1.3599    0.6838    0.0074 N   0  0  0  0  0  0  0  0  0  0  0  0
   -0.0758   -1.8377    0.0388 N   0  0  0  0  0  0  0  0  0  0  0  0
   -0.0301    0.5850    0.0496 C   0  0  0  0  0  0  0  0  0  0  0  0
   -1.4097   -1.7463    0.0327 C   0  0  0  0  0  0  0  0  0  0  0  0
    0.6239   -0.6996    0.0280 C   0  0  0  0  0  0  0  0  0  0  0  0
   -2.0611   -0.4509   -0.0231 C   0  0  0  0  0  0  0  0  0  0  0  0
    0.8015    1.7507    0.0757 C   0  0  0  0  0  0  0  0  0  0  0  0
   -2.1904   -2.9427    0.0806 C   0  0  0  0  0  0  0  0  0  0  0  0
    2.0556   -0.7623   -0.0001 C   0  0  0  0  0  0  0  0  0  0  0  0
   -3.4936   -0.4425   -0.0580 C   0  0  0  0  0  0  0  0  0  0  0  0
    2.1615    1.6687    0.0210 C   0  0  0  0  0  0  0  0  0  0  0  0
   -3.5577   -2.8644    0.0837 C   0  0  0  0  0  0  0  0  0  0  0  0
    2.7931    0.3953   -0.0086 C   0  0  0  0  0  0  0  0  0  0  0  0
   -4.2177   -1.6010    0.0224 C   0  0  0  0  0  0  0  0  0  0  0  0
   -1.6628   -3.8896    0.1186 H   0  0  0  0  0  0  0  0  0  0  0  0
    4.2723    0.3806   -0.0437 N   0  0  0  0  0  0  0  0  0  0  0  0
    4.8239   -0.7121   -0.1165 O   0  0  0  0  0  0  0  0  0  0  0  0
    4.8397    1.4693    0.0017 O   0  0  0  0  0  0  0  0  0  0  0  0
   -4.1591   -3.7662    0.1270 H   0  0  0  0  0  0  0  0  0  0  0  0
   -5.3010   -1.5483    0.0282 H   0  0  0  0  0  0  0  0  0  0  0  0
    2.6306   -2.1271   -0.0164 N   0  0  0  0  0  0  0  0  0  0  0  0
    2.8536   -2.6296    1.0749 O   0  0  0  0  0  0  0  0  0  0  0  0
    2.7567   -2.6446   -1.1156 O   0  0  0  0  0  0  0  0  0  0  0  0
    2.7802    2.5575    0.0078 H   0  0  0  0  0  0  0  0  0  0  0  0
    0.1895    3.0901    0.1792 N   0  0  0  0  0  0  0  0  0  0  0  0
   -0.5865    3.2687    1.1095 O   0  0  0  0  0  0  0  0  0  0  0  0
    0.5357    3.9227   -0.6551 O   0  0  0  0  0  0  0  0  0  0  0  0
   -4.2269    0.8287   -0.2011 N   0  0  0  0  0  0  0  0  0  0  0  0
   -5.1866    1.0029    0.5497 O   0  0  0  0  0  0  0  0  0  0  0  0
   -3.8509    1.5950   -1.0804 O   0  0  0  0  0  0  0  0  0  0  0  0
  1  3  1  0  0  0  0
  3  7  1  0  0  0  0
  4  2  2  0  0  0  0
  4  8  1  0  0  0  0
  5  2  1  0  0  0  0
  5  3  2  0  0  0  0
  6  1  2  0  0  0  0
  6  4  1  0  0  0  0
  7 25  1  0  0  0  0
  8 12  2  0  0  0  0
  8 15  1  0  0  0  0
  9  5  1  0  0  0  0
 10  6  1  0  0  0  0
 10 14  2  0  0  0  0
 11  7  2  0  0  0  0
 12 19  1  0  0  0  0
 13  9  2  0  0  0  0
 13 11  1  0  0  0  0
 14 20  1  0  0  0  0
 14 12  1  0  0  0  0
 16 13  1  0  0  0  0
 16 18  2  0  0  0  0
 17 16  2  0  0  0  0
 21  9  1  0  0  0  0
 21 22  2  0  0  0  0
 23 21  2  0  0  0  0
 24 11  1  0  0  0  0
 25 26  2  0  0  0  0
 27 25  2  0  0  0  0
 28 10  1  0  0  0  0
 28 29  2  0  0  0  0
 30 28  2  0  0  0  0
M  END
