no2 r1469 neutral
 OpenBabel10202110183D

 30 32  0  0  0  0  0  0  0  0999 V2000
    0.0001    1.4129   -0.0000 N   0  0  0  0  0  0  0  0  0  0  0  0
   -0.0001   -1.4129   -0.0000 N   0  0  0  0  0  0  0  0  0  0  0  0
   -1.1409    0.7237   -0.0426 C   0  0  0  0  0  0  0  0  0  0  0  0
    1.1409   -0.7237    0.0426 C   0  0  0  0  0  0  0  0  0  0  0  0
   -1.1410   -0.7235   -0.0426 C   0  0  0  0  0  0  0  0  0  0  0  0
    1.1410    0.7235    0.0426 C   0  0  0  0  0  0  0  0  0  0  0  0
   -2.4061    1.3973   -0.0442 C   0  0  0  0  0  0  0  0  0  0  0  0
    2.4061   -1.3973    0.0441 C   0  0  0  0  0  0  0  0  0  0  0  0
   -2.4064   -1.3969   -0.0441 C   0  0  0  0  0  0  0  0  0  0  0  0
    2.4063    1.3969    0.0441 C   0  0  0  0  0  0  0  0  0  0  0  0
   -3.5871    0.7116    0.0218 C   0  0  0  0  0  0  0  0  0  0  0  0
    3.5870   -0.7116   -0.0218 C   0  0  0  0  0  0  0  0  0  0  0  0
   -3.5872   -0.7110    0.0218 C   0  0  0  0  0  0  0  0  0  0  0  0
    3.5871    0.7110   -0.0218 C   0  0  0  0  0  0  0  0  0  0  0  0
   -4.5248   -1.2539    0.0607 H   0  0  0  0  0  0  0  0  0  0  0  0
   -4.5246    1.2547    0.0607 H   0  0  0  0  0  0  0  0  0  0  0  0
    4.5247    1.2539   -0.0607 H   0  0  0  0  0  0  0  0  0  0  0  0
    4.5245   -1.2547   -0.0607 H   0  0  0  0  0  0  0  0  0  0  0  0
    2.4558   -2.8692    0.1283 N   0  0  0  0  0  0  0  0  0  0  0  0
    3.1382   -3.4484   -0.7148 O   0  0  0  0  0  0  0  0  0  0  0  0
    2.4564    2.8688    0.1283 N   0  0  0  0  0  0  0  0  0  0  0  0
    1.8468    3.3916    1.0531 O   0  0  0  0  0  0  0  0  0  0  0  0
   -2.4559    2.8692   -0.1284 N   0  0  0  0  0  0  0  0  0  0  0  0
   -3.1382    3.4484    0.7148 O   0  0  0  0  0  0  0  0  0  0  0  0
   -1.8462    3.3919   -1.0531 O   0  0  0  0  0  0  0  0  0  0  0  0
   -2.4564   -2.8688   -0.1283 N   0  0  0  0  0  0  0  0  0  0  0  0
   -3.1388   -3.4479    0.7149 O   0  0  0  0  0  0  0  0  0  0  0  0
   -1.8467   -3.3916   -1.0529 O   0  0  0  0  0  0  0  0  0  0  0  0
    1.8462   -3.3919    1.0530 O   0  0  0  0  0  0  0  0  0  0  0  0
    3.1391    3.4478   -0.7146 O   0  0  0  0  0  0  0  0  0  0  0  0
  1  6  1  0  0  0  0
  2  4  1  0  0  0  0
  3  5  1  0  0  0  0
  3  1  2  0  0  0  0
  4  8  1  0  0  0  0
  5  2  2  0  0  0  0
  6  4  2  0  0  0  0
  6 10  1  0  0  0  0
  7  3  1  0  0  0  0
  7 11  2  0  0  0  0
  8 19  1  0  0  0  0
  9  5  1  0  0  0  0
  9 13  2  0  0  0  0
 10 21  1  0  0  0  0
 11 13  1  0  0  0  0
 11 16  1  0  0  0  0
 12 14  1  0  0  0  0
 12  8  2  0  0  0  0
 13 15  1  0  0  0  0
 14 10  2  0  0  0  0
 17 14  1  0  0  0  0
 18 12  1  0  0  0  0
 19 29  2  0  0  0  0
 20 19  2  0  0  0  0
 21 22  2  0  0  0  0
 23  7  1  0  0  0  0
 23 24  2  0  0  0  0
 25 23  2  0  0  0  0
 26  9  1  0  0  0  0
 26 27  2  0  0  0  0
 28 26  2  0  0  0  0
 30 21  2  0  0  0  0
M  END
