ch3 r1 neutral
 OpenBabel10202110183D

 25 27  0  0  0  0  0  0  0  0999 V2000
   -0.0336    1.2078   -0.0000 N   0  0  0  0  0  0  0  0  0  0  0  0
   -0.3993   -1.6479    0.0000 N   0  0  0  0  0  0  0  0  0  0  0  0
    1.0249    0.3523   -0.0000 C   0  0  0  0  0  0  0  0  0  0  0  0
    0.8403   -1.0833   -0.0000 C   0  0  0  0  0  0  0  0  0  0  0  0
    2.3504    0.8850   -0.0001 C   0  0  0  0  0  0  0  0  0  0  0  0
   -1.2734    0.6439    0.0000 C   0  0  0  0  0  0  0  0  0  0  0  0
   -1.4563   -0.7921    0.0000 C   0  0  0  0  0  0  0  0  0  0  0  0
    1.9853   -1.9198   -0.0000 C   0  0  0  0  0  0  0  0  0  0  0  0
    3.4438    0.0175   -0.0001 C   0  0  0  0  0  0  0  0  0  0  0  0
    3.2665   -1.3797   -0.0001 C   0  0  0  0  0  0  0  0  0  0  0  0
    2.5372    2.3816   -0.0000 C   0  0  0  0  0  0  0  0  0  0  0  0
   -2.4236    1.4730    0.0000 C   0  0  0  0  0  0  0  0  0  0  0  0
   -2.7791   -1.3058    0.0001 C   0  0  0  0  0  0  0  0  0  0  0  0
   -3.7090    0.9351    0.0001 C   0  0  0  0  0  0  0  0  0  0  0  0
   -3.8873   -0.4620    0.0001 C   0  0  0  0  0  0  0  0  0  0  0  0
    1.8204   -2.9944   -0.0000 H   0  0  0  0  0  0  0  0  0  0  0  0
    4.4505    0.4330   -0.0001 H   0  0  0  0  0  0  0  0  0  0  0  0
    4.1352   -2.0352   -0.0001 H   0  0  0  0  0  0  0  0  0  0  0  0
    2.0621    2.8432    0.8746 H   0  0  0  0  0  0  0  0  0  0  0  0
    3.6026    2.6419   -0.0004 H   0  0  0  0  0  0  0  0  0  0  0  0
    2.0615    2.8432   -0.8743 H   0  0  0  0  0  0  0  0  0  0  0  0
   -2.2627    2.5485    0.0000 H   0  0  0  0  0  0  0  0  0  0  0  0
   -2.8929   -2.3873    0.0001 H   0  0  0  0  0  0  0  0  0  0  0  0
   -4.5741    1.5954    0.0001 H   0  0  0  0  0  0  0  0  0  0  0  0
   -4.8908   -0.8832    0.0001 H   0  0  0  0  0  0  0  0  0  0  0  0
  1  6  1  0  0  0  0
  2  7  1  0  0  0  0
  3  4  1  0  0  0  0
  3  1  2  0  0  0  0
  4  2  2  0  0  0  0
  5 11  1  0  0  0  0
  5  3  1  0  0  0  0
  6 12  1  0  0  0  0
  7  6  2  0  0  0  0
  7 13  1  0  0  0  0
  8 16  1  0  0  0  0
  8  4  1  0  0  0  0
  9  5  2  0  0  0  0
  9 10  1  0  0  0  0
 10  8  2  0  0  0  0
 11 19  1  0  0  0  0
 12 14  2  0  0  0  0
 13 23  1  0  0  0  0
 13 15  2  0  0  0  0
 14 15  1  0  0  0  0
 14 24  1  0  0  0  0
 15 25  1  0  0  0  0
 17  9  1  0  0  0  0
 18 10  1  0  0  0  0
 20 11  1  0  0  0  0
 21 11  1  0  0  0  0
 22 12  1  0  0  0  0
M  END
