ch3 r2 neutral
 OpenBabel10202110183D

 25 27  0  0  0  0  0  0  0  0999 V2000
    0.2772   -1.3312    0.0000 N   0  0  0  0  0  0  0  0  0  0  0  0
    0.5417    1.5038   -0.0000 N   0  0  0  0  0  0  0  0  0  0  0  0
   -0.7977   -0.5285   -0.0000 C   0  0  0  0  0  0  0  0  0  0  0  0
   -0.6606    0.9119   -0.0000 C   0  0  0  0  0  0  0  0  0  0  0  0
    1.4836   -0.7399    0.0000 C   0  0  0  0  0  0  0  0  0  0  0  0
    1.6188    0.7005    0.0000 C   0  0  0  0  0  0  0  0  0  0  0  0
   -3.2315   -0.3137   -0.0000 C   0  0  0  0  0  0  0  0  0  0  0  0
   -2.1068   -1.1029    0.0000 C   0  0  0  0  0  0  0  0  0  0  0  0
   -1.8466    1.7113    0.0000 C   0  0  0  0  0  0  0  0  0  0  0  0
   -3.0791    1.1161   -0.0000 C   0  0  0  0  0  0  0  0  0  0  0  0
    2.6638   -1.5459   -0.0000 C   0  0  0  0  0  0  0  0  0  0  0  0
    2.9273    1.2750    0.0000 C   0  0  0  0  0  0  0  0  0  0  0  0
   -4.6195   -0.9042   -0.0000 C   0  0  0  0  0  0  0  0  0  0  0  0
    3.9023   -0.9560   -0.0000 C   0  0  0  0  0  0  0  0  0  0  0  0
    4.0356    0.4666   -0.0000 C   0  0  0  0  0  0  0  0  0  0  0  0
   -2.1745   -2.1869    0.0000 H   0  0  0  0  0  0  0  0  0  0  0  0
   -1.7299    2.7905    0.0000 H   0  0  0  0  0  0  0  0  0  0  0  0
   -3.9741    1.7336   -0.0000 H   0  0  0  0  0  0  0  0  0  0  0  0
    2.5390   -2.6241   -0.0000 H   0  0  0  0  0  0  0  0  0  0  0  0
    3.0035    2.3577    0.0000 H   0  0  0  0  0  0  0  0  0  0  0  0
   -5.1853   -0.5792    0.8815 H   0  0  0  0  0  0  0  0  0  0  0  0
   -5.1852   -0.5792   -0.8816 H   0  0  0  0  0  0  0  0  0  0  0  0
   -4.5895   -1.9967    0.0001 H   0  0  0  0  0  0  0  0  0  0  0  0
    4.7968   -1.5721   -0.0000 H   0  0  0  0  0  0  0  0  0  0  0  0
    5.0287    0.9061   -0.0000 H   0  0  0  0  0  0  0  0  0  0  0  0
  1  3  2  0  0  0  0
  1  5  1  0  0  0  0
  2  4  2  0  0  0  0
  2  6  1  0  0  0  0
  3  4  1  0  0  0  0
  3  8  1  0  0  0  0
  4  9  1  0  0  0  0
  5  6  1  0  0  0  0
  7  8  2  0  0  0  0
  8 16  1  0  0  0  0
  9 17  1  0  0  0  0
 10  7  1  0  0  0  0
 10  9  2  0  0  0  0
 11 19  1  0  0  0  0
 11  5  2  0  0  0  0
 12 15  1  0  0  0  0
 12 20  1  0  0  0  0
 12  6  2  0  0  0  0
 13  7  1  0  0  0  0
 13 23  1  0  0  0  0
 13 21  1  0  0  0  0
 14 11  1  0  0  0  0
 14 15  2  0  0  0  0
 18 10  1  0  0  0  0
 22 13  1  0  0  0  0
 24 14  1  0  0  0  0
 25 15  1  0  0  0  0
M  END
