cooh r2 neutral
 OpenBabel10202110183D

 25 27  0  0  0  0  0  0  0  0999 V2000
   -4.9295    0.3963    0.0003 O   0  0  0  0  0  0  0  0  0  0  0  0
   -4.2316   -1.7452    0.0002 O   0  0  0  0  0  0  0  0  0  0  0  0
    0.8304   -1.2577    0.0001 N   0  0  0  0  0  0  0  0  0  0  0  0
    1.2830    1.5545   -0.0002 N   0  0  0  0  0  0  0  0  0  0  0  0
   -0.1881   -0.3820    0.0000 C   0  0  0  0  0  0  0  0  0  0  0  0
    0.0411    1.0459   -0.0001 C   0  0  0  0  0  0  0  0  0  0  0  0
    2.0709   -0.7503   -0.0000 C   0  0  0  0  0  0  0  0  0  0  0  0
    2.3015    0.6810   -0.0001 C   0  0  0  0  0  0  0  0  0  0  0  0
   -1.5272   -0.8705    0.0001 C   0  0  0  0  0  0  0  0  0  0  0  0
   -1.0851    1.9265   -0.0001 C   0  0  0  0  0  0  0  0  0  0  0  0
   -2.5864    0.0086    0.0001 C   0  0  0  0  0  0  0  0  0  0  0  0
   -2.3591    1.4251   -0.0000 C   0  0  0  0  0  0  0  0  0  0  0  0
    3.1944   -1.6355    0.0000 C   0  0  0  0  0  0  0  0  0  0  0  0
    3.6462    1.1655   -0.0002 C   0  0  0  0  0  0  0  0  0  0  0  0
    4.4681   -1.1294   -0.0001 C   0  0  0  0  0  0  0  0  0  0  0  0
    4.6954    0.2828   -0.0002 C   0  0  0  0  0  0  0  0  0  0  0  0
   -3.9637   -0.5595    0.0002 C   0  0  0  0  0  0  0  0  0  0  0  0
   -1.6946   -1.9421    0.0002 H   0  0  0  0  0  0  0  0  0  0  0  0
   -0.8918    2.9943   -0.0002 H   0  0  0  0  0  0  0  0  0  0  0  0
   -3.2127    2.0926   -0.0000 H   0  0  0  0  0  0  0  0  0  0  0  0
    2.9964   -2.7025    0.0001 H   0  0  0  0  0  0  0  0  0  0  0  0
    3.7961    2.2403   -0.0003 H   0  0  0  0  0  0  0  0  0  0  0  0
    5.3202   -1.8024   -0.0001 H   0  0  0  0  0  0  0  0  0  0  0  0
    5.7161    0.6538   -0.0003 H   0  0  0  0  0  0  0  0  0  0  0  0
   -5.7826   -0.0690    0.0003 H   0  0  0  0  0  0  0  0  0  0  0  0
  1 25  1  0  0  0  0
  2 17  2  0  0  0  0
  4  8  2  0  0  0  0
  4  6  1  0  0  0  0
  5  3  1  0  0  0  0
  5  9  1  0  0  0  0
  6  5  2  0  0  0  0
  7 13  1  0  0  0  0
  7  3  2  0  0  0  0
  8  7  1  0  0  0  0
  9 18  1  0  0  0  0
 10  6  1  0  0  0  0
 10 12  2  0  0  0  0
 11  9  2  0  0  0  0
 11 17  1  0  0  0  0
 12 11  1  0  0  0  0
 13 21  1  0  0  0  0
 14 16  2  0  0  0  0
 14  8  1  0  0  0  0
 15 23  1  0  0  0  0
 15 13  2  0  0  0  0
 16 15  1  0  0  0  0
 17  1  1  0  0  0  0
 19 10  1  0  0  0  0
 20 12  1  0  0  0  0
 22 14  1  0  0  0  0
 24 16  1  0  0  0  0
M  END
