cf3 r1 neutral
 OpenBabel10202110183D

 25 27  0  0  0  0  0  0  0  0999 V2000
   -2.2017   -1.8838   -1.0894 F   0  0  0  0  0  0  0  0  0  0  0  0
   -2.2016   -1.8837    1.0896 F   0  0  0  0  0  0  0  0  0  0  0  0
   -3.8768   -1.0281    0.0001 F   0  0  0  0  0  0  0  0  0  0  0  0
    0.3388   -0.7898    0.0000 N   0  0  0  0  0  0  0  0  0  0  0  0
    1.5151    1.8294   -0.0001 N   0  0  0  0  0  0  0  0  0  0  0  0
   -0.4230    0.3231   -0.0000 C   0  0  0  0  0  0  0  0  0  0  0  0
    0.1699    1.6516   -0.0001 C   0  0  0  0  0  0  0  0  0  0  0  0
   -1.8520    0.2286    0.0000 C   0  0  0  0  0  0  0  0  0  0  0  0
    1.6897   -0.6116   -0.0000 C   0  0  0  0  0  0  0  0  0  0  0  0
    2.2810    0.7049   -0.0001 C   0  0  0  0  0  0  0  0  0  0  0  0
   -0.6793    2.7846   -0.0001 C   0  0  0  0  0  0  0  0  0  0  0  0
   -2.6525    1.3785    0.0000 C   0  0  0  0  0  0  0  0  0  0  0  0
   -2.0663    2.6507   -0.0000 C   0  0  0  0  0  0  0  0  0  0  0  0
   -2.5026   -1.1186    0.0001 C   0  0  0  0  0  0  0  0  0  0  0  0
    2.5440   -1.7419   -0.0000 C   0  0  0  0  0  0  0  0  0  0  0  0
    3.6953    0.8150   -0.0001 C   0  0  0  0  0  0  0  0  0  0  0  0
    3.9280   -1.6002   -0.0001 C   0  0  0  0  0  0  0  0  0  0  0  0
    4.5065   -0.3145   -0.0001 C   0  0  0  0  0  0  0  0  0  0  0  0
   -0.2040    3.7620   -0.0001 H   0  0  0  0  0  0  0  0  0  0  0  0
   -3.7320    1.2790    0.0001 H   0  0  0  0  0  0  0  0  0  0  0  0
   -2.6999    3.5342   -0.0001 H   0  0  0  0  0  0  0  0  0  0  0  0
    2.0748   -2.7222    0.0000 H   0  0  0  0  0  0  0  0  0  0  0  0
    4.1187    1.8164   -0.0002 H   0  0  0  0  0  0  0  0  0  0  0  0
    4.5640   -2.4829   -0.0000 H   0  0  0  0  0  0  0  0  0  0  0  0
    5.5890   -0.2053   -0.0001 H   0  0  0  0  0  0  0  0  0  0  0  0
  1 14  1  0  0  0  0
  5 10  2  0  0  0  0
  5  7  1  0  0  0  0
  6  4  1  0  0  0  0
  6  8  1  0  0  0  0
  7  6  2  0  0  0  0
  8 14  1  0  0  0  0
  9 15  1  0  0  0  0
  9  4  2  0  0  0  0
 10  9  1  0  0  0  0
 11  7  1  0  0  0  0
 11 13  2  0  0  0  0
 12  8  2  0  0  0  0
 12 20  1  0  0  0  0
 13 12  1  0  0  0  0
 14  3  1  0  0  0  0
 14  2  1  0  0  0  0
 15 22  1  0  0  0  0
 16 18  2  0  0  0  0
 16 10  1  0  0  0  0
 17 24  1  0  0  0  0
 17 15  2  0  0  0  0
 18 17  1  0  0  0  0
 19 11  1  0  0  0  0
 21 13  1  0  0  0  0
 23 16  1  0  0  0  0
 25 18  1  0  0  0  0
M  END
