cf3 r2 neutral
 OpenBabel10202110183D

 25 27  0  0  0  0  0  0  0  0999 V2000
    4.5198    0.3753   -0.7968 F   0  0  0  0  0  0  0  0  0  0  0  0
    4.2425   -0.2739    1.2585 F   0  0  0  0  0  0  0  0  0  0  0  0
    3.8221   -1.6525   -0.3748 F   0  0  0  0  0  0  0  0  0  0  0  0
   -1.1441   -1.2505   -0.0213 N   0  0  0  0  0  0  0  0  0  0  0  0
   -1.6597    1.5851    0.0035 N   0  0  0  0  0  0  0  0  0  0  0  0
   -2.4105   -0.7528   -0.0070 C   0  0  0  0  0  0  0  0  0  0  0  0
   -2.6720    0.6695    0.0053 C   0  0  0  0  0  0  0  0  0  0  0  0
   -4.8237   -1.1748    0.0089 C   0  0  0  0  0  0  0  0  0  0  0  0
   -5.0775    0.2111    0.0216 C   0  0  0  0  0  0  0  0  0  0  0  0
   -0.1375   -0.3361   -0.0221 C   0  0  0  0  0  0  0  0  0  0  0  0
   -0.4020    1.0900   -0.0095 C   0  0  0  0  0  0  0  0  0  0  0  0
   -3.5143   -1.6441   -0.0054 C   0  0  0  0  0  0  0  0  0  0  0  0
   -4.0168    1.1129    0.0198 C   0  0  0  0  0  0  0  0  0  0  0  0
    1.2055   -0.7801   -0.0353 C   0  0  0  0  0  0  0  0  0  0  0  0
    2.2681    0.1286   -0.0426 C   0  0  0  0  0  0  0  0  0  0  0  0
    0.7075    1.9811   -0.0133 C   0  0  0  0  0  0  0  0  0  0  0  0
    2.0135    1.5176   -0.0280 C   0  0  0  0  0  0  0  0  0  0  0  0
    3.6747   -0.3518    0.0029 C   0  0  0  0  0  0  0  0  0  0  0  0
   -3.2953   -2.7088   -0.0156 H   0  0  0  0  0  0  0  0  0  0  0  0
   -4.1880    2.1865    0.0293 H   0  0  0  0  0  0  0  0  0  0  0  0
    1.3808   -1.8504   -0.0453 H   0  0  0  0  0  0  0  0  0  0  0  0
    0.4922    3.0460   -0.0071 H   0  0  0  0  0  0  0  0  0  0  0  0
    2.8422    2.2196   -0.0329 H   0  0  0  0  0  0  0  0  0  0  0  0
   -6.1018    0.5773    0.0330 H   0  0  0  0  0  0  0  0  0  0  0  0
   -5.6525   -1.8797    0.0100 H   0  0  0  0  0  0  0  0  0  0  0  0
  1 18  1  0  0  0  0
  3 18  1  0  0  0  0
  4  6  1  0  0  0  0
  5  7  1  0  0  0  0
  6 12  2  0  0  0  0
  6  7  1  0  0  0  0
  7 13  2  0  0  0  0
  8 25  1  0  0  0  0
  8  9  2  0  0  0  0
  9 24  1  0  0  0  0
 10  4  2  0  0  0  0
 10 11  1  0  0  0  0
 11  5  2  0  0  0  0
 12  8  1  0  0  0  0
 13  9  1  0  0  0  0
 13 20  1  0  0  0  0
 14 10  1  0  0  0  0
 15 14  2  0  0  0  0
 15 17  1  0  0  0  0
 15 18  1  0  0  0  0
 16 11  1  0  0  0  0
 16 22  1  0  0  0  0
 17 16  2  0  0  0  0
 18  2  1  0  0  0  0
 19 12  1  0  0  0  0
 21 14  1  0  0  0  0
 23 17  1  0  0  0  0
M  END
