cn r2 neutral
 OpenBabel10202110183D

 23 25  0  0  0  0  0  0  0  0999 V2000
   -0.4447   -1.2987   -0.0001 N   0  0  0  0  0  0  0  0  0  0  0  0
   -0.8313    1.5231    0.0002 N   0  0  0  0  0  0  0  0  0  0  0  0
    5.4252   -1.0391   -0.0005 N   0  0  0  0  0  0  0  0  0  0  0  0
    0.5931   -0.4467   -0.0001 C   0  0  0  0  0  0  0  0  0  0  0  0
    0.3974    0.9856    0.0001 C   0  0  0  0  0  0  0  0  0  0  0  0
   -1.6732   -0.7626    0.0000 C   0  0  0  0  0  0  0  0  0  0  0  0
   -1.8704    0.6743    0.0002 C   0  0  0  0  0  0  0  0  0  0  0  0
    1.9195   -0.9694   -0.0002 C   0  0  0  0  0  0  0  0  0  0  0  0
    1.5426    1.8424    0.0001 C   0  0  0  0  0  0  0  0  0  0  0  0
   -2.8170   -1.6207    0.0000 C   0  0  0  0  0  0  0  0  0  0  0  0
   -3.2028    1.1911    0.0003 C   0  0  0  0  0  0  0  0  0  0  0  0
    2.9980   -0.1094   -0.0002 C   0  0  0  0  0  0  0  0  0  0  0  0
    2.8047    1.3154   -0.0001 C   0  0  0  0  0  0  0  0  0  0  0  0
   -4.0781   -1.0837    0.0001 C   0  0  0  0  0  0  0  0  0  0  0  0
   -4.2724    0.3332    0.0003 C   0  0  0  0  0  0  0  0  0  0  0  0
    4.3349   -0.6319   -0.0003 C   0  0  0  0  0  0  0  0  0  0  0  0
    2.0489   -2.0461   -0.0003 H   0  0  0  0  0  0  0  0  0  0  0  0
    1.3735    2.9142    0.0002 H   0  0  0  0  0  0  0  0  0  0  0  0
   -2.6453   -2.6922   -0.0001 H   0  0  0  0  0  0  0  0  0  0  0  0
   -3.3273    2.2691    0.0004 H   0  0  0  0  0  0  0  0  0  0  0  0
    3.6761    1.9613   -0.0000 H   0  0  0  0  0  0  0  0  0  0  0  0
   -4.9458   -1.7366    0.0001 H   0  0  0  0  0  0  0  0  0  0  0  0
   -5.2839    0.7280    0.0004 H   0  0  0  0  0  0  0  0  0  0  0  0
  1  4  2  0  0  0  0
  1  6  1  0  0  0  0
  3 16  3  0  0  0  0
  4  5  1  0  0  0  0
  5  2  2  0  0  0  0
  6  7  1  0  0  0  0
  7  2  1  0  0  0  0
  7 11  2  0  0  0  0
  8 12  2  0  0  0  0
  8  4  1  0  0  0  0
  9  5  1  0  0  0  0
  9 18  1  0  0  0  0
 10  6  2  0  0  0  0
 10 14  1  0  0  0  0
 11 20  1  0  0  0  0
 12 13  1  0  0  0  0
 13 21  1  0  0  0  0
 13  9  2  0  0  0  0
 14 15  2  0  0  0  0
 15 11  1  0  0  0  0
 15 23  1  0  0  0  0
 16 12  1  0  0  0  0
 17  8  1  0  0  0  0
 19 10  1  0  0  0  0
 22 14  1  0  0  0  0
M  END
