no2 r2 neutral
 OpenBabel10202110183D

 24 26  0  0  0  0  0  0  0  0999 V2000
   -4.8860    0.3351   -0.0003 O   0  0  0  0  0  0  0  0  0  0  0  0
   -4.1369   -1.7140    0.0001 O   0  0  0  0  0  0  0  0  0  0  0  0
    0.7999   -1.2569    0.0000 N   0  0  0  0  0  0  0  0  0  0  0  0
    1.2488    1.5560   -0.0000 N   0  0  0  0  0  0  0  0  0  0  0  0
   -3.9739   -0.4938    0.0002 N   0  0  0  0  0  0  0  0  0  0  0  0
   -0.2183   -0.3814    0.0001 C   0  0  0  0  0  0  0  0  0  0  0  0
    0.0079    1.0466    0.0000 C   0  0  0  0  0  0  0  0  0  0  0  0
    2.0396   -0.7485   -0.0000 C   0  0  0  0  0  0  0  0  0  0  0  0
    2.2684    0.6842   -0.0001 C   0  0  0  0  0  0  0  0  0  0  0  0
   -1.5557   -0.8767    0.0001 C   0  0  0  0  0  0  0  0  0  0  0  0
   -1.1182    1.9289    0.0001 C   0  0  0  0  0  0  0  0  0  0  0  0
   -2.5905    0.0206    0.0002 C   0  0  0  0  0  0  0  0  0  0  0  0
   -2.3938    1.4324    0.0001 C   0  0  0  0  0  0  0  0  0  0  0  0
    3.1636   -1.6327   -0.0001 C   0  0  0  0  0  0  0  0  0  0  0  0
    3.6120    1.1707   -0.0001 C   0  0  0  0  0  0  0  0  0  0  0  0
    4.4361   -1.1242   -0.0001 C   0  0  0  0  0  0  0  0  0  0  0  0
    4.6616    0.2886   -0.0002 C   0  0  0  0  0  0  0  0  0  0  0  0
   -1.7302   -1.9455    0.0002 H   0  0  0  0  0  0  0  0  0  0  0  0
   -0.9253    2.9964    0.0000 H   0  0  0  0  0  0  0  0  0  0  0  0
   -3.2601    2.0816    0.0001 H   0  0  0  0  0  0  0  0  0  0  0  0
    2.9673   -2.6999   -0.0000 H   0  0  0  0  0  0  0  0  0  0  0  0
    3.7609    2.2456   -0.0002 H   0  0  0  0  0  0  0  0  0  0  0  0
    5.2894   -1.7956   -0.0002 H   0  0  0  0  0  0  0  0  0  0  0  0
    5.6819    0.6603   -0.0002 H   0  0  0  0  0  0  0  0  0  0  0  0
  1  5  2  0  0  0  0
  2  5  2  0  0  0  0
  3  6  1  0  0  0  0
  4  7  1  0  0  0  0
  6 10  1  0  0  0  0
  7 11  1  0  0  0  0
  7  6  2  0  0  0  0
  8  3  2  0  0  0  0
  9  8  1  0  0  0  0
  9  4  2  0  0  0  0
 10 18  1  0  0  0  0
 10 12  2  0  0  0  0
 11 13  2  0  0  0  0
 12  5  1  0  0  0  0
 13 20  1  0  0  0  0
 13 12  1  0  0  0  0
 14 21  1  0  0  0  0
 14  8  1  0  0  0  0
 15  9  1  0  0  0  0
 16 14  2  0  0  0  0
 17 15  2  0  0  0  0
 17 16  1  0  0  0  0
 19 11  1  0  0  0  0
 22 15  1  0  0  0  0
 23 16  1  0  0  0  0
 24 17  1  0  0  0  0
M  END
