cn r12 neutral
 OpenBabel10202110183D

 24 26  0  0  0  0  0  0  0  0999 V2000
   -0.5783    1.0507   -0.0000 N   0  0  0  0  0  0  0  0  0  0  0  0
   -1.2327   -1.7143   -0.0002 N   0  0  0  0  0  0  0  0  0  0  0  0
    0.3702    0.1073    0.0000 C   0  0  0  0  0  0  0  0  0  0  0  0
    0.0423   -1.2975   -0.0000 C   0  0  0  0  0  0  0  0  0  0  0  0
   -1.8531    0.6384   -0.0000 C   0  0  0  0  0  0  0  0  0  0  0  0
   -2.1875   -0.7731   -0.0001 C   0  0  0  0  0  0  0  0  0  0  0  0
    1.7552    0.5027   -0.0001 C   0  0  0  0  0  0  0  0  0  0  0  0
    1.0941   -2.2635   -0.0001 C   0  0  0  0  0  0  0  0  0  0  0  0
   -2.9055    1.6051    0.0001 C   0  0  0  0  0  0  0  0  0  0  0  0
   -3.5631   -1.1600   -0.0000 C   0  0  0  0  0  0  0  0  0  0  0  0
    2.7467   -0.4746    0.0001 C   0  0  0  0  0  0  0  0  0  0  0  0
    2.4032   -1.8652    0.0001 C   0  0  0  0  0  0  0  0  0  0  0  0
   -4.2121    1.1911    0.0002 C   0  0  0  0  0  0  0  0  0  0  0  0
   -4.5428   -0.2011    0.0001 C   0  0  0  0  0  0  0  0  0  0  0  0
    0.8189   -3.3129   -0.0001 H   0  0  0  0  0  0  0  0  0  0  0  0
   -2.6293    2.6544    0.0001 H   0  0  0  0  0  0  0  0  0  0  0  0
   -3.7921   -2.2205   -0.0001 H   0  0  0  0  0  0  0  0  0  0  0  0
   -5.0132    1.9239    0.0003 H   0  0  0  0  0  0  0  0  0  0  0  0
    2.0822    1.8957   -0.0002 C   0  0  0  0  0  0  0  0  0  0  0  0
    2.3656    3.0237   -0.0001 N   0  0  0  0  0  0  0  0  0  0  0  0
   -5.5881   -0.4948    0.0001 H   0  0  0  0  0  0  0  0  0  0  0  0
    3.2063   -2.5936    0.0001 H   0  0  0  0  0  0  0  0  0  0  0  0
    4.1356   -0.1205    0.0003 C   0  0  0  0  0  0  0  0  0  0  0  0
    5.2746    0.1162    0.0000 N   0  0  0  0  0  0  0  0  0  0  0  0
  1  5  2  0  0  0  0
  1  3  1  0  0  0  0
  2  6  2  0  0  0  0
  2  4  1  0  0  0  0
  4  3  1  0  0  0  0
  5  9  1  0  0  0  0
  6 10  1  0  0  0  0
  6  5  1  0  0  0  0
  7  3  2  0  0  0  0
  7 11  1  0  0  0  0
  8 15  1  0  0  0  0
  8  4  2  0  0  0  0
  8 12  1  0  0  0  0
  9 16  1  0  0  0  0
  9 13  2  0  0  0  0
 10 14  2  0  0  0  0
 11 23  1  0  0  0  0
 12 11  2  0  0  0  0
 12 22  1  0  0  0  0
 13 18  1  0  0  0  0
 14 21  1  0  0  0  0
 14 13  1  0  0  0  0
 17 10  1  0  0  0  0
 19 20  3  0  0  0  0
 19  7  1  0  0  0  0
 24 23  3  0  0  0  0
M  END
