cn r14 neutral
 OpenBabel10202110183D

 24 26  0  0  0  0  0  0  0  0999 V2000
    0.5022   -1.4182    0.0000 N   0  0  0  0  0  0  0  0  0  0  0  0
    0.5022    1.4182    0.0000 N   0  0  0  0  0  0  0  0  0  0  0  0
   -0.6388   -0.7210    0.0000 C   0  0  0  0  0  0  0  0  0  0  0  0
   -0.6388    0.7210    0.0000 C   0  0  0  0  0  0  0  0  0  0  0  0
    1.6494   -0.7248    0.0000 C   0  0  0  0  0  0  0  0  0  0  0  0
    1.6494    0.7248    0.0000 C   0  0  0  0  0  0  0  0  0  0  0  0
   -1.8988   -1.4199    0.0000 C   0  0  0  0  0  0  0  0  0  0  0  0
   -1.8988    1.4199    0.0000 C   0  0  0  0  0  0  0  0  0  0  0  0
    2.8963   -1.4218    0.0000 C   0  0  0  0  0  0  0  0  0  0  0  0
    2.8963    1.4218    0.0000 C   0  0  0  0  0  0  0  0  0  0  0  0
   -3.0835   -0.7083    0.0000 C   0  0  0  0  0  0  0  0  0  0  0  0
   -3.0835    0.7083    0.0000 C   0  0  0  0  0  0  0  0  0  0  0  0
    4.0712   -0.7155    0.0000 C   0  0  0  0  0  0  0  0  0  0  0  0
    4.0712    0.7155    0.0000 C   0  0  0  0  0  0  0  0  0  0  0  0
    2.8716   -2.5065    0.0000 H   0  0  0  0  0  0  0  0  0  0  0  0
    2.8716    2.5065    0.0000 H   0  0  0  0  0  0  0  0  0  0  0  0
   -4.0283    1.2406    0.0000 H   0  0  0  0  0  0  0  0  0  0  0  0
    5.0203   -1.2428    0.0000 H   0  0  0  0  0  0  0  0  0  0  0  0
   -4.0283   -1.2406    0.0000 H   0  0  0  0  0  0  0  0  0  0  0  0
   -1.9167   -2.8526    0.0000 C   0  0  0  0  0  0  0  0  0  0  0  0
   -1.9791   -4.0143    0.0000 N   0  0  0  0  0  0  0  0  0  0  0  0
    5.0203    1.2428    0.0000 H   0  0  0  0  0  0  0  0  0  0  0  0
   -1.9167    2.8526    0.0000 C   0  0  0  0  0  0  0  0  0  0  0  0
   -1.9791    4.0143    0.0000 N   0  0  0  0  0  0  0  0  0  0  0  0
  1  5  2  0  0  0  0
  1  3  1  0  0  0  0
  4  3  1  0  0  0  0
  4  2  1  0  0  0  0
  6  5  1  0  0  0  0
  6  2  2  0  0  0  0
  7  3  2  0  0  0  0
  8  4  2  0  0  0  0
  9  5  1  0  0  0  0
 10  6  1  0  0  0  0
 11  7  1  0  0  0  0
 12 11  2  0  0  0  0
 12  8  1  0  0  0  0
 13 18  1  0  0  0  0
 13 14  1  0  0  0  0
 13  9  2  0  0  0  0
 14 10  2  0  0  0  0
 15  9  1  0  0  0  0
 16 10  1  0  0  0  0
 17 12  1  0  0  0  0
 19 11  1  0  0  0  0
 20  7  1  0  0  0  0
 21 20  3  0  0  0  0
 22 14  1  0  0  0  0
 23  8  1  0  0  0  0
 24 23  3  0  0  0  0
M  END
