cn r137 neutral
 OpenBabel10202110183D

 25 27  0  0  0  0  0  0  0  0999 V2000
   -0.3712   -1.3939   -0.0000 N   0  0  0  0  0  0  0  0  0  0  0  0
   -0.0825    1.4342   -0.0000 N   0  0  0  0  0  0  0  0  0  0  0  0
    0.8379   -0.8127   -0.0000 C   0  0  0  0  0  0  0  0  0  0  0  0
    0.9797    0.6244   -0.0000 C   0  0  0  0  0  0  0  0  0  0  0  0
   -1.4384   -0.5830   -0.0000 C   0  0  0  0  0  0  0  0  0  0  0  0
   -1.2927    0.8572   -0.0000 C   0  0  0  0  0  0  0  0  0  0  0  0
    1.9988   -1.6395   -0.0000 C   0  0  0  0  0  0  0  0  0  0  0  0
    2.3087    1.1862    0.0000 C   0  0  0  0  0  0  0  0  0  0  0  0
   -2.7458   -1.1537   -0.0000 C   0  0  0  0  0  0  0  0  0  0  0  0
   -2.4633    1.6766   -0.0000 C   0  0  0  0  0  0  0  0  0  0  0  0
    3.2530   -1.0651    0.0000 C   0  0  0  0  0  0  0  0  0  0  0  0
    3.4095    0.3586    0.0000 C   0  0  0  0  0  0  0  0  0  0  0  0
   -3.8500   -0.3289    0.0000 C   0  0  0  0  0  0  0  0  0  0  0  0
   -3.7048    1.1030   -0.0000 C   0  0  0  0  0  0  0  0  0  0  0  0
   -2.3302    2.7532   -0.0000 H   0  0  0  0  0  0  0  0  0  0  0  0
   -4.5987    1.7173    0.0000 H   0  0  0  0  0  0  0  0  0  0  0  0
    2.4763    2.6100    0.0000 C   0  0  0  0  0  0  0  0  0  0  0  0
    2.6493    3.7599    0.0000 N   0  0  0  0  0  0  0  0  0  0  0  0
   -2.8386   -2.2340   -0.0000 H   0  0  0  0  0  0  0  0  0  0  0  0
    1.8646   -2.7155   -0.0000 H   0  0  0  0  0  0  0  0  0  0  0  0
    4.4271   -1.8908    0.0000 C   0  0  0  0  0  0  0  0  0  0  0  0
    5.3849   -2.5507    0.0000 N   0  0  0  0  0  0  0  0  0  0  0  0
    4.4077    0.7816    0.0000 H   0  0  0  0  0  0  0  0  0  0  0  0
   -5.1701   -0.8929    0.0000 C   0  0  0  0  0  0  0  0  0  0  0  0
   -6.2462   -1.3351    0.0000 N   0  0  0  0  0  0  0  0  0  0  0  0
  2  4  2  0  0  0  0
  2  6  1  0  0  0  0
  3  4  1  0  0  0  0
  3  7  1  0  0  0  0
  3  1  2  0  0  0  0
  4  8  1  0  0  0  0
  5  6  2  0  0  0  0
  5  1  1  0  0  0  0
  5  9  1  0  0  0  0
  6 10  1  0  0  0  0
  7 20  1  0  0  0  0
  7 11  2  0  0  0  0
  8 12  2  0  0  0  0
  8 17  1  0  0  0  0
 10 15  1  0  0  0  0
 10 14  2  0  0  0  0
 11 12  1  0  0  0  0
 12 23  1  0  0  0  0
 13 14  1  0  0  0  0
 13  9  2  0  0  0  0
 13 24  1  0  0  0  0
 16 14  1  0  0  0  0
 17 18  3  0  0  0  0
 19  9  1  0  0  0  0
 21 11  1  0  0  0  0
 21 22  3  0  0  0  0
 24 25  3  0  0  0  0
M  END
