cn r138 neutral
 OpenBabel10202110183D

 25 27  0  0  0  0  0  0  0  0999 V2000
   -0.0026   -1.7608    0.0000 N   0  0  0  0  0  0  0  0  0  0  0  0
    0.3689    1.0575    0.0000 N   0  0  0  0  0  0  0  0  0  0  0  0
   -1.0450   -0.9148    0.0000 C   0  0  0  0  0  0  0  0  0  0  0  0
   -0.8512    0.5162    0.0000 C   0  0  0  0  0  0  0  0  0  0  0  0
    1.2231   -1.2216    0.0000 C   0  0  0  0  0  0  0  0  0  0  0  0
    1.4122    0.2137    0.0000 C   0  0  0  0  0  0  0  0  0  0  0  0
   -2.3653   -1.4502    0.0000 C   0  0  0  0  0  0  0  0  0  0  0  0
   -2.0145    1.3707    0.0000 C   0  0  0  0  0  0  0  0  0  0  0  0
    2.3710   -2.0749    0.0000 C   0  0  0  0  0  0  0  0  0  0  0  0
    2.7341    0.7463    0.0000 C   0  0  0  0  0  0  0  0  0  0  0  0
   -3.4528   -0.6012    0.0000 C   0  0  0  0  0  0  0  0  0  0  0  0
   -3.2767    0.8203    0.0000 C   0  0  0  0  0  0  0  0  0  0  0  0
    3.6281   -1.5380    0.0000 C   0  0  0  0  0  0  0  0  0  0  0  0
    3.8142   -0.1108    0.0000 C   0  0  0  0  0  0  0  0  0  0  0  0
    2.8568    1.8237    0.0000 H   0  0  0  0  0  0  0  0  0  0  0  0
    4.5042   -2.1774    0.0000 H   0  0  0  0  0  0  0  0  0  0  0  0
   -1.8484    2.7945    0.0000 C   0  0  0  0  0  0  0  0  0  0  0  0
   -1.7514    3.9533    0.0000 N   0  0  0  0  0  0  0  0  0  0  0  0
    2.2078   -3.1473    0.0000 H   0  0  0  0  0  0  0  0  0  0  0  0
   -2.4838   -2.5280    0.0000 H   0  0  0  0  0  0  0  0  0  0  0  0
   -4.7857   -1.1339    0.0000 C   0  0  0  0  0  0  0  0  0  0  0  0
   -5.8695   -1.5561    0.0000 N   0  0  0  0  0  0  0  0  0  0  0  0
   -4.1500    1.4625    0.0000 H   0  0  0  0  0  0  0  0  0  0  0  0
    5.1505    0.4130    0.0000 C   0  0  0  0  0  0  0  0  0  0  0  0
    6.2408    0.8190    0.0000 N   0  0  0  0  0  0  0  0  0  0  0  0
  1  5  2  0  0  0  0
  1  3  1  0  0  0  0
  4  3  1  0  0  0  0
  4  2  1  0  0  0  0
  6  5  1  0  0  0  0
  6  2  2  0  0  0  0
  7  3  2  0  0  0  0
  8  4  2  0  0  0  0
  9  5  1  0  0  0  0
 10  6  1  0  0  0  0
 11  7  1  0  0  0  0
 12 11  2  0  0  0  0
 12  8  1  0  0  0  0
 13 16  1  0  0  0  0
 13 14  1  0  0  0  0
 13  9  2  0  0  0  0
 14 10  2  0  0  0  0
 15 10  1  0  0  0  0
 17  8  1  0  0  0  0
 18 17  3  0  0  0  0
 19  9  1  0  0  0  0
 20  7  1  0  0  0  0
 21 11  1  0  0  0  0
 22 21  3  0  0  0  0
 23 12  1  0  0  0  0
 24 14  1  0  0  0  0
 25 24  3  0  0  0  0
M  END
