cn r146 neutral
 OpenBabel10202110183D

 25 27  0  0  0  0  0  0  0  0999 V2000
   -0.6445    0.9094    0.0000 N   0  0  0  0  0  0  0  0  0  0  0  0
    0.4910   -1.6840   -0.0001 N   0  0  0  0  0  0  0  0  0  0  0  0
    0.6806    0.7313   -0.0000 C   0  0  0  0  0  0  0  0  0  0  0  0
    1.2586   -0.5905   -0.0000 C   0  0  0  0  0  0  0  0  0  0  0  0
   -1.4136   -0.1832    0.0000 C   0  0  0  0  0  0  0  0  0  0  0  0
   -0.8378   -1.5097   -0.0000 C   0  0  0  0  0  0  0  0  0  0  0  0
    1.5542    1.8772   -0.0000 C   0  0  0  0  0  0  0  0  0  0  0  0
    2.6931   -0.7296    0.0000 C   0  0  0  0  0  0  0  0  0  0  0  0
   -2.8492   -0.0548    0.0000 C   0  0  0  0  0  0  0  0  0  0  0  0
   -1.6921   -2.6543   -0.0001 C   0  0  0  0  0  0  0  0  0  0  0  0
    2.9241    1.6955   -0.0000 C   0  0  0  0  0  0  0  0  0  0  0  0
    3.4920    0.3970    0.0000 C   0  0  0  0  0  0  0  0  0  0  0  0
   -3.6350   -1.1905   -0.0000 C   0  0  0  0  0  0  0  0  0  0  0  0
   -3.0534   -2.4904   -0.0001 C   0  0  0  0  0  0  0  0  0  0  0  0
   -1.2259   -3.6339   -0.0002 H   0  0  0  0  0  0  0  0  0  0  0  0
    4.5710    0.2887    0.0001 H   0  0  0  0  0  0  0  0  0  0  0  0
   -4.7149   -1.0872    0.0000 H   0  0  0  0  0  0  0  0  0  0  0  0
    3.5774    2.5610   -0.0000 H   0  0  0  0  0  0  0  0  0  0  0  0
    1.0043    3.1999   -0.0000 C   0  0  0  0  0  0  0  0  0  0  0  0
    0.6130    4.2951   -0.0001 N   0  0  0  0  0  0  0  0  0  0  0  0
   -3.7078   -3.3560   -0.0002 H   0  0  0  0  0  0  0  0  0  0  0  0
    3.2797   -2.0365    0.0001 C   0  0  0  0  0  0  0  0  0  0  0  0
    3.7944   -3.0797    0.0001 N   0  0  0  0  0  0  0  0  0  0  0  0
   -3.4555    1.2436    0.0001 C   0  0  0  0  0  0  0  0  0  0  0  0
   -3.9968    2.2731    0.0002 N   0  0  0  0  0  0  0  0  0  0  0  0
  1  5  1  0  0  0  0
  2  4  2  0  0  0  0
  2  6  1  0  0  0  0
  3  4  1  0  0  0  0
  3  7  1  0  0  0  0
  3  1  2  0  0  0  0
  4  8  1  0  0  0  0
  5  9  1  0  0  0  0
  6  5  2  0  0  0  0
  7 11  2  0  0  0  0
  8 12  2  0  0  0  0
  8 22  1  0  0  0  0
  9 24  1  0  0  0  0
 10 14  2  0  0  0  0
 10  6  1  0  0  0  0
 11 12  1  0  0  0  0
 12 16  1  0  0  0  0
 13 17  1  0  0  0  0
 13  9  2  0  0  0  0
 14 13  1  0  0  0  0
 15 10  1  0  0  0  0
 18 11  1  0  0  0  0
 19  7  1  0  0  0  0
 20 19  3  0  0  0  0
 21 14  1  0  0  0  0
 22 23  3  0  0  0  0
 24 25  3  0  0  0  0
M  END
