cn r147 neutral
 OpenBabel10202110183D

 25 27  0  0  0  0  0  0  0  0999 V2000
   -0.1768    1.2460   -0.0003 N   0  0  0  0  0  0  0  0  0  0  0  0
    0.3289   -1.5448   -0.0001 N   0  0  0  0  0  0  0  0  0  0  0  0
    1.0695    0.7649   -0.0001 C   0  0  0  0  0  0  0  0  0  0  0  0
    1.3269   -0.6554   -0.0001 C   0  0  0  0  0  0  0  0  0  0  0  0
   -1.1801    0.3562   -0.0001 C   0  0  0  0  0  0  0  0  0  0  0  0
   -0.9228   -1.0671   -0.0000 C   0  0  0  0  0  0  0  0  0  0  0  0
    2.1843    1.6788    0.0001 C   0  0  0  0  0  0  0  0  0  0  0  0
    2.6914   -1.1191    0.0001 C   0  0  0  0  0  0  0  0  0  0  0  0
   -2.5262    0.8256   -0.0003 C   0  0  0  0  0  0  0  0  0  0  0  0
   -2.0260   -1.9759    0.0001 C   0  0  0  0  0  0  0  0  0  0  0  0
    3.4756    1.1886    0.0002 C   0  0  0  0  0  0  0  0  0  0  0  0
    3.7283   -0.2063    0.0001 C   0  0  0  0  0  0  0  0  0  0  0  0
   -3.5630   -0.0830   -0.0000 C   0  0  0  0  0  0  0  0  0  0  0  0
   -3.3077   -1.4997    0.0002 C   0  0  0  0  0  0  0  0  0  0  0  0
   -1.8098   -3.0389    0.0003 H   0  0  0  0  0  0  0  0  0  0  0  0
    4.7533   -0.5605    0.0001 H   0  0  0  0  0  0  0  0  0  0  0  0
    4.3110    1.8799    0.0003 H   0  0  0  0  0  0  0  0  0  0  0  0
    1.9448    3.0912    0.0002 C   0  0  0  0  0  0  0  0  0  0  0  0
    1.7950    4.2446   -0.0000 N   0  0  0  0  0  0  0  0  0  0  0  0
   -4.1518   -2.1807    0.0005 H   0  0  0  0  0  0  0  0  0  0  0  0
    2.9627   -2.5258    0.0001 C   0  0  0  0  0  0  0  0  0  0  0  0
    3.2260   -3.6587   -0.0002 N   0  0  0  0  0  0  0  0  0  0  0  0
   -2.7008    1.8957   -0.0004 H   0  0  0  0  0  0  0  0  0  0  0  0
   -4.9232    0.3756    0.0001 C   0  0  0  0  0  0  0  0  0  0  0  0
   -6.0316    0.7291    0.0001 N   0  0  0  0  0  0  0  0  0  0  0  0
  1  3  2  0  0  0  0
  1  5  1  0  0  0  0
  2  4  2  0  0  0  0
  2  6  1  0  0  0  0
  3  4  1  0  0  0  0
  3  7  1  0  0  0  0
  4  8  1  0  0  0  0
  5  6  1  0  0  0  0
  6 10  2  0  0  0  0
  7 18  1  0  0  0  0
  7 11  2  0  0  0  0
  8 21  1  0  0  0  0
  8 12  2  0  0  0  0
  9  5  2  0  0  0  0
  9 13  1  0  0  0  0
 10 14  1  0  0  0  0
 10 15  1  0  0  0  0
 11 17  1  0  0  0  0
 12 16  1  0  0  0  0
 12 11  1  0  0  0  0
 13 24  1  0  0  0  0
 13 14  2  0  0  0  0
 14 20  1  0  0  0  0
 19 18  3  0  0  0  0
 22 21  3  0  0  0  0
 23  9  1  0  0  0  0
 24 25  3  0  0  0  0
M  END
