cn r1234 neutral
 OpenBabel10202110183D

 26 28  0  0  0  0  0  0  0  0999 V2000
    1.3270    1.4179    0.0000 N   0  0  0  0  0  0  0  0  0  0  0  0
    1.3270   -1.4179   -0.0000 N   0  0  0  0  0  0  0  0  0  0  0  0
    0.1874    0.7190    0.0000 C   0  0  0  0  0  0  0  0  0  0  0  0
    0.1874   -0.7190   -0.0000 C   0  0  0  0  0  0  0  0  0  0  0  0
    2.4741    0.7265    0.0000 C   0  0  0  0  0  0  0  0  0  0  0  0
    2.4741   -0.7265   -0.0000 C   0  0  0  0  0  0  0  0  0  0  0  0
   -1.0655    1.4256   -0.0000 C   0  0  0  0  0  0  0  0  0  0  0  0
   -1.0655   -1.4256   -0.0000 C   0  0  0  0  0  0  0  0  0  0  0  0
    3.7196    1.4243   -0.0000 C   0  0  0  0  0  0  0  0  0  0  0  0
    3.7196   -1.4243   -0.0000 C   0  0  0  0  0  0  0  0  0  0  0  0
   -2.2642    0.7204   -0.0000 C   0  0  0  0  0  0  0  0  0  0  0  0
   -2.2642   -0.7204   -0.0000 C   0  0  0  0  0  0  0  0  0  0  0  0
    4.8932    0.7158   -0.0000 C   0  0  0  0  0  0  0  0  0  0  0  0
    4.8932   -0.7158    0.0000 C   0  0  0  0  0  0  0  0  0  0  0  0
   -1.0529   -2.8559    0.0001 C   0  0  0  0  0  0  0  0  0  0  0  0
   -1.0536   -4.0186    0.0001 N   0  0  0  0  0  0  0  0  0  0  0  0
    3.6957   -2.5088    0.0000 H   0  0  0  0  0  0  0  0  0  0  0  0
    5.8427   -1.2420    0.0000 H   0  0  0  0  0  0  0  0  0  0  0  0
   -3.5141   -1.4181   -0.0000 C   0  0  0  0  0  0  0  0  0  0  0  0
   -4.5310   -1.9816   -0.0000 N   0  0  0  0  0  0  0  0  0  0  0  0
    5.8427    1.2420   -0.0000 H   0  0  0  0  0  0  0  0  0  0  0  0
    3.6957    2.5088   -0.0000 H   0  0  0  0  0  0  0  0  0  0  0  0
   -1.0529    2.8559   -0.0000 C   0  0  0  0  0  0  0  0  0  0  0  0
   -1.0536    4.0186    0.0001 N   0  0  0  0  0  0  0  0  0  0  0  0
   -3.5141    1.4181    0.0001 C   0  0  0  0  0  0  0  0  0  0  0  0
   -4.5310    1.9816   -0.0001 N   0  0  0  0  0  0  0  0  0  0  0  0
  2  4  2  0  0  0  0
  2  6  1  0  0  0  0
  3  1  2  0  0  0  0
  4  3  1  0  0  0  0
  5  1  1  0  0  0  0
  6 10  2  0  0  0  0
  6  5  1  0  0  0  0
  7 11  2  0  0  0  0
  7  3  1  0  0  0  0
  8 12  2  0  0  0  0
  8  4  1  0  0  0  0
  8 15  1  0  0  0  0
  9 13  1  0  0  0  0
  9  5  2  0  0  0  0
 10 14  1  0  0  0  0
 10 17  1  0  0  0  0
 11 25  1  0  0  0  0
 12 11  1  0  0  0  0
 12 19  1  0  0  0  0
 13 14  2  0  0  0  0
 14 18  1  0  0  0  0
 16 15  3  0  0  0  0
 20 19  3  0  0  0  0
 21 13  1  0  0  0  0
 22  9  1  0  0  0  0
 23  7  1  0  0  0  0
 23 24  3  0  0  0  0
 26 25  3  0  0  0  0
M  END
