cn r1237 neutral
 OpenBabel10202110183D

 26 28  0  0  0  0  0  0  0  0999 V2000
    0.4608    1.3615   -0.0000 N   0  0  0  0  0  0  0  0  0  0  0  0
    0.8919   -1.4482   -0.0000 N   0  0  0  0  0  0  0  0  0  0  0  0
   -0.5586    0.4972   -0.0000 C   0  0  0  0  0  0  0  0  0  0  0  0
   -0.3438   -0.9278   -0.0000 C   0  0  0  0  0  0  0  0  0  0  0  0
    1.6979    0.8477   -0.0000 C   0  0  0  0  0  0  0  0  0  0  0  0
    1.9170   -0.5848   -0.0000 C   0  0  0  0  0  0  0  0  0  0  0  0
   -1.9085    1.0008   -0.0000 C   0  0  0  0  0  0  0  0  0  0  0  0
   -1.4632   -1.8085   -0.0000 C   0  0  0  0  0  0  0  0  0  0  0  0
    2.8248    1.7264   -0.0000 C   0  0  0  0  0  0  0  0  0  0  0  0
    3.2511   -1.0883   -0.0000 C   0  0  0  0  0  0  0  0  0  0  0  0
   -2.9813    0.1170    0.0000 C   0  0  0  0  0  0  0  0  0  0  0  0
   -2.7464   -1.3095    0.0000 C   0  0  0  0  0  0  0  0  0  0  0  0
    4.0933    1.2158    0.0000 C   0  0  0  0  0  0  0  0  0  0  0  0
    4.3111   -0.2073    0.0000 C   0  0  0  0  0  0  0  0  0  0  0  0
    3.3992   -2.1623   -0.0000 H   0  0  0  0  0  0  0  0  0  0  0  0
   -3.8567   -2.2169    0.0000 C   0  0  0  0  0  0  0  0  0  0  0  0
   -4.7387   -2.9745   -0.0000 N   0  0  0  0  0  0  0  0  0  0  0  0
    4.9551    1.8743    0.0000 H   0  0  0  0  0  0  0  0  0  0  0  0
    2.6372    2.7947   -0.0000 H   0  0  0  0  0  0  0  0  0  0  0  0
   -2.1171    2.4164   -0.0000 C   0  0  0  0  0  0  0  0  0  0  0  0
   -2.2943    3.5655   -0.0000 N   0  0  0  0  0  0  0  0  0  0  0  0
   -4.3257    0.6076    0.0000 C   0  0  0  0  0  0  0  0  0  0  0  0
   -5.4218    0.9957    0.0000 N   0  0  0  0  0  0  0  0  0  0  0  0
   -1.2780   -2.8769   -0.0000 H   0  0  0  0  0  0  0  0  0  0  0  0
    5.6583   -0.7028    0.0000 C   0  0  0  0  0  0  0  0  0  0  0  0
    6.7554   -1.0895    0.0000 N   0  0  0  0  0  0  0  0  0  0  0  0
  1  3  1  0  0  0  0
  2  4  1  0  0  0  0
  2  6  2  0  0  0  0
  4  8  1  0  0  0  0
  4  3  2  0  0  0  0
  5  6  1  0  0  0  0
  5  9  1  0  0  0  0
  5  1  2  0  0  0  0
  6 10  1  0  0  0  0
  7  3  1  0  0  0  0
  8 12  2  0  0  0  0
  9 19  1  0  0  0  0
  9 13  2  0  0  0  0
 10 15  1  0  0  0  0
 10 14  2  0  0  0  0
 11  7  2  0  0  0  0
 11 22  1  0  0  0  0
 12 11  1  0  0  0  0
 12 16  1  0  0  0  0
 13 18  1  0  0  0  0
 14 13  1  0  0  0  0
 14 25  1  0  0  0  0
 17 16  3  0  0  0  0
 20 21  3  0  0  0  0
 20  7  1  0  0  0  0
 23 22  3  0  0  0  0
 24  8  1  0  0  0  0
 25 26  3  0  0  0  0
M  END
