cn r1238 neutral
 OpenBabel10202110183D

 26 28  0  0  0  0  0  0  0  0999 V2000
   -0.7060    0.9501    0.0000 N   0  0  0  0  0  0  0  0  0  0  0  0
   -0.5761   -1.8895    0.0000 N   0  0  0  0  0  0  0  0  0  0  0  0
    0.4634    0.3047    0.0000 C   0  0  0  0  0  0  0  0  0  0  0  0
    0.5332   -1.1347    0.0000 C   0  0  0  0  0  0  0  0  0  0  0  0
   -1.8171    0.1998    0.0000 C   0  0  0  0  0  0  0  0  0  0  0  0
   -1.7515   -1.2479    0.0000 C   0  0  0  0  0  0  0  0  0  0  0  0
    1.6878    1.0652    0.0000 C   0  0  0  0  0  0  0  0  0  0  0  0
    1.8040   -1.7768    0.0000 C   0  0  0  0  0  0  0  0  0  0  0  0
   -3.0884    0.8443    0.0000 C   0  0  0  0  0  0  0  0  0  0  0  0
   -2.9674   -2.0000    0.0000 C   0  0  0  0  0  0  0  0  0  0  0  0
    2.9136    0.4105    0.0000 C   0  0  0  0  0  0  0  0  0  0  0  0
    2.9638   -1.0343    0.0000 C   0  0  0  0  0  0  0  0  0  0  0  0
   -4.2370    0.0820    0.0000 C   0  0  0  0  0  0  0  0  0  0  0  0
   -4.1734   -1.3563   -0.0000 C   0  0  0  0  0  0  0  0  0  0  0  0
   -2.8971   -3.0824   -0.0000 H   0  0  0  0  0  0  0  0  0  0  0  0
   -5.1011   -1.9181   -0.0000 H   0  0  0  0  0  0  0  0  0  0  0  0
    4.2309   -1.7056   -0.0000 C   0  0  0  0  0  0  0  0  0  0  0  0
    5.2448   -2.2748    0.0000 N   0  0  0  0  0  0  0  0  0  0  0  0
   -3.1187    1.9282    0.0000 H   0  0  0  0  0  0  0  0  0  0  0  0
    1.6131    2.4941    0.0000 C   0  0  0  0  0  0  0  0  0  0  0  0
    1.5608    3.6555    0.0000 N   0  0  0  0  0  0  0  0  0  0  0  0
    4.1354    1.1557   -0.0000 C   0  0  0  0  0  0  0  0  0  0  0  0
    5.1345    1.7505   -0.0000 N   0  0  0  0  0  0  0  0  0  0  0  0
    1.8336   -2.8606    0.0000 H   0  0  0  0  0  0  0  0  0  0  0  0
   -5.5244    0.7167   -0.0000 C   0  0  0  0  0  0  0  0  0  0  0  0
   -6.5767    1.2124   -0.0000 N   0  0  0  0  0  0  0  0  0  0  0  0
  1  5  2  0  0  0  0
  1  3  1  0  0  0  0
  4  3  1  0  0  0  0
  4  2  1  0  0  0  0
  6  5  1  0  0  0  0
  6  2  2  0  0  0  0
  7  3  2  0  0  0  0
  8  4  2  0  0  0  0
  9  5  1  0  0  0  0
 10  6  1  0  0  0  0
 11  7  1  0  0  0  0
 12 11  2  0  0  0  0
 12  8  1  0  0  0  0
 13  9  2  0  0  0  0
 14 16  1  0  0  0  0
 14 13  1  0  0  0  0
 14 10  2  0  0  0  0
 15 10  1  0  0  0  0
 17 12  1  0  0  0  0
 18 17  3  0  0  0  0
 19  9  1  0  0  0  0
 20  7  1  0  0  0  0
 21 20  3  0  0  0  0
 22 11  1  0  0  0  0
 23 22  3  0  0  0  0
 24  8  1  0  0  0  0
 25 13  1  0  0  0  0
 26 25  3  0  0  0  0
M  END
