cn r1249 neutral
 OpenBabel10202110183D

 26 28  0  0  0  0  0  0  0  0999 V2000
    0.5270    1.8997   -0.0000 N   0  0  0  0  0  0  0  0  0  0  0  0
    0.7351   -0.9228    0.0000 N   0  0  0  0  0  0  0  0  0  0  0  0
   -0.5596    1.1238   -0.0000 C   0  0  0  0  0  0  0  0  0  0  0  0
   -0.4556   -0.3129   -0.0000 C   0  0  0  0  0  0  0  0  0  0  0  0
    1.7225    1.2939   -0.0000 C   0  0  0  0  0  0  0  0  0  0  0  0
    1.8237   -0.1499   -0.0000 C   0  0  0  0  0  0  0  0  0  0  0  0
   -1.8665    1.7314    0.0000 C   0  0  0  0  0  0  0  0  0  0  0  0
   -1.6519   -1.1137   -0.0000 C   0  0  0  0  0  0  0  0  0  0  0  0
    2.9085    2.0886   -0.0001 C   0  0  0  0  0  0  0  0  0  0  0  0
    3.1342   -0.7505    0.0000 C   0  0  0  0  0  0  0  0  0  0  0  0
   -2.9936    0.9401    0.0000 C   0  0  0  0  0  0  0  0  0  0  0  0
   -2.8942   -0.4838    0.0000 C   0  0  0  0  0  0  0  0  0  0  0  0
    4.1368    1.4791   -0.0001 C   0  0  0  0  0  0  0  0  0  0  0  0
    4.2525    0.0592   -0.0000 C   0  0  0  0  0  0  0  0  0  0  0  0
   -1.5447   -2.5391   -0.0000 C   0  0  0  0  0  0  0  0  0  0  0  0
   -1.4888   -3.7006   -0.0001 N   0  0  0  0  0  0  0  0  0  0  0  0
    5.2367   -0.3969    0.0000 H   0  0  0  0  0  0  0  0  0  0  0  0
   -4.1103   -1.2422   -0.0000 C   0  0  0  0  0  0  0  0  0  0  0  0
   -5.1211   -1.8170   -0.0000 N   0  0  0  0  0  0  0  0  0  0  0  0
    5.0424    2.0769   -0.0001 H   0  0  0  0  0  0  0  0  0  0  0  0
    2.7960    3.1675   -0.0001 H   0  0  0  0  0  0  0  0  0  0  0  0
   -1.9856    3.1591    0.0000 C   0  0  0  0  0  0  0  0  0  0  0  0
   -2.1189    4.3142    0.0001 N   0  0  0  0  0  0  0  0  0  0  0  0
   -3.9779    1.3938    0.0000 H   0  0  0  0  0  0  0  0  0  0  0  0
    3.2713   -2.1766    0.0001 C   0  0  0  0  0  0  0  0  0  0  0  0
    3.4352   -3.3280    0.0001 N   0  0  0  0  0  0  0  0  0  0  0  0
  1  3  1  0  0  0  0
  2  6  2  0  0  0  0
  2  4  1  0  0  0  0
  3  7  1  0  0  0  0
  4  3  2  0  0  0  0
  5  1  2  0  0  0  0
  5  6  1  0  0  0  0
  6 10  1  0  0  0  0
  7 22  1  0  0  0  0
  8 12  2  0  0  0  0
  8  4  1  0  0  0  0
  9 13  2  0  0  0  0
  9  5  1  0  0  0  0
 10 25  1  0  0  0  0
 11  7  2  0  0  0  0
 11 24  1  0  0  0  0
 12 11  1  0  0  0  0
 13 14  1  0  0  0  0
 14 17  1  0  0  0  0
 14 10  2  0  0  0  0
 15  8  1  0  0  0  0
 16 15  3  0  0  0  0
 18 12  1  0  0  0  0
 19 18  3  0  0  0  0
 20 13  1  0  0  0  0
 21  9  1  0  0  0  0
 22 23  3  0  0  0  0
 25 26  3  0  0  0  0
M  END
