cn r1278 neutral
 OpenBabel10202110183D

 26 28  0  0  0  0  0  0  0  0999 V2000
    0.0600   -1.8788    0.0000 N   0  0  0  0  0  0  0  0  0  0  0  0
   -0.4057    0.9253    0.0000 N   0  0  0  0  0  0  0  0  0  0  0  0
   -1.1828   -1.3775    0.0000 C   0  0  0  0  0  0  0  0  0  0  0  0
   -1.4153    0.0495    0.0000 C   0  0  0  0  0  0  0  0  0  0  0  0
    1.0734   -1.0011    0.0000 C   0  0  0  0  0  0  0  0  0  0  0  0
    0.8367    0.4233    0.0000 C   0  0  0  0  0  0  0  0  0  0  0  0
   -2.2972   -2.2712    0.0000 C   0  0  0  0  0  0  0  0  0  0  0  0
   -2.7703    0.5398    0.0000 C   0  0  0  0  0  0  0  0  0  0  0  0
    2.4148   -1.4842    0.0000 C   0  0  0  0  0  0  0  0  0  0  0  0
    1.9477    1.3173    0.0000 C   0  0  0  0  0  0  0  0  0  0  0  0
   -3.5742   -1.7819    0.0000 C   0  0  0  0  0  0  0  0  0  0  0  0
   -3.8232   -0.3696   -0.0000 C   0  0  0  0  0  0  0  0  0  0  0  0
    3.4724   -0.6033   -0.0000 C   0  0  0  0  0  0  0  0  0  0  0  0
    3.2341    0.8278    0.0000 C   0  0  0  0  0  0  0  0  0  0  0  0
   -3.0006    1.9514    0.0000 C   0  0  0  0  0  0  0  0  0  0  0  0
   -3.2016    3.0968    0.0000 N   0  0  0  0  0  0  0  0  0  0  0  0
    1.7509    2.3836    0.0000 H   0  0  0  0  0  0  0  0  0  0  0  0
   -5.1848    0.0772   -0.0000 C   0  0  0  0  0  0  0  0  0  0  0  0
   -6.3043    0.3926   -0.0000 N   0  0  0  0  0  0  0  0  0  0  0  0
    2.5773   -2.5562    0.0000 H   0  0  0  0  0  0  0  0  0  0  0  0
   -2.0949   -3.3368    0.0000 H   0  0  0  0  0  0  0  0  0  0  0  0
   -4.4258   -2.4529    0.0000 H   0  0  0  0  0  0  0  0  0  0  0  0
    4.8137   -1.1100   -0.0000 C   0  0  0  0  0  0  0  0  0  0  0  0
    5.8933   -1.5423   -0.0000 N   0  0  0  0  0  0  0  0  0  0  0  0
    4.3406    1.7395    0.0000 C   0  0  0  0  0  0  0  0  0  0  0  0
    5.2270    2.4922    0.0000 N   0  0  0  0  0  0  0  0  0  0  0  0
  1  5  2  0  0  0  0
  1  3  1  0  0  0  0
  4  3  1  0  0  0  0
  4  2  1  0  0  0  0
  6  5  1  0  0  0  0
  6  2  2  0  0  0  0
  7  3  2  0  0  0  0
  8  4  2  0  0  0  0
  9  5  1  0  0  0  0
 10  6  1  0  0  0  0
 11  7  1  0  0  0  0
 12 11  2  0  0  0  0
 12  8  1  0  0  0  0
 13  9  2  0  0  0  0
 14 25  1  0  0  0  0
 14 13  1  0  0  0  0
 14 10  2  0  0  0  0
 15  8  1  0  0  0  0
 16 15  3  0  0  0  0
 17 10  1  0  0  0  0
 18 12  1  0  0  0  0
 19 18  3  0  0  0  0
 20  9  1  0  0  0  0
 21  7  1  0  0  0  0
 22 11  1  0  0  0  0
 23 13  1  0  0  0  0
 24 23  3  0  0  0  0
 26 25  3  0  0  0  0
M  END
