cn r1368 neutral
 OpenBabel10202110183D

 26 28  0  0  0  0  0  0  0  0999 V2000
    0.0353    1.4180    0.0002 N   0  0  0  0  0  0  0  0  0  0  0  0
   -0.0353   -1.4180    0.0002 N   0  0  0  0  0  0  0  0  0  0  0  0
    1.1629    0.6903    0.0002 C   0  0  0  0  0  0  0  0  0  0  0  0
    1.1216   -0.7533   -0.0000 C   0  0  0  0  0  0  0  0  0  0  0  0
   -1.1216    0.7533    0.0000 C   0  0  0  0  0  0  0  0  0  0  0  0
   -1.1629   -0.6904    0.0002 C   0  0  0  0  0  0  0  0  0  0  0  0
    2.4173    1.3656    0.0005 C   0  0  0  0  0  0  0  0  0  0  0  0
    2.3678   -1.4813   -0.0003 C   0  0  0  0  0  0  0  0  0  0  0  0
   -2.3678    1.4813   -0.0003 C   0  0  0  0  0  0  0  0  0  0  0  0
   -2.4173   -1.3656    0.0005 C   0  0  0  0  0  0  0  0  0  0  0  0
    3.5874    0.6349    0.0001 C   0  0  0  0  0  0  0  0  0  0  0  0
    3.5630   -0.7982   -0.0004 C   0  0  0  0  0  0  0  0  0  0  0  0
   -3.5630    0.7982   -0.0004 C   0  0  0  0  0  0  0  0  0  0  0  0
   -3.5874   -0.6349    0.0001 C   0  0  0  0  0  0  0  0  0  0  0  0
    4.5003   -1.3430   -0.0007 H   0  0  0  0  0  0  0  0  0  0  0  0
   -4.5003    1.3430   -0.0007 H   0  0  0  0  0  0  0  0  0  0  0  0
    2.3516   -2.9144   -0.0004 C   0  0  0  0  0  0  0  0  0  0  0  0
    2.3719   -4.0770   -0.0003 N   0  0  0  0  0  0  0  0  0  0  0  0
   -2.3516    2.9144   -0.0004 C   0  0  0  0  0  0  0  0  0  0  0  0
   -2.3718    4.0770   -0.0003 N   0  0  0  0  0  0  0  0  0  0  0  0
   -2.4194   -2.4499    0.0011 H   0  0  0  0  0  0  0  0  0  0  0  0
   -4.8582   -1.3022    0.0002 C   0  0  0  0  0  0  0  0  0  0  0  0
   -5.8945   -1.8300    0.0003 N   0  0  0  0  0  0  0  0  0  0  0  0
    2.4194    2.4499    0.0011 H   0  0  0  0  0  0  0  0  0  0  0  0
    4.8582    1.3022    0.0002 C   0  0  0  0  0  0  0  0  0  0  0  0
    5.8945    1.8300    0.0003 N   0  0  0  0  0  0  0  0  0  0  0  0
  1  3  1  0  0  0  0
  2  6  2  0  0  0  0
  3  7  1  0  0  0  0
  4  2  1  0  0  0  0
  4  3  2  0  0  0  0
  5  1  2  0  0  0  0
  5  6  1  0  0  0  0
  6 10  1  0  0  0  0
  7 24  1  0  0  0  0
  8  4  1  0  0  0  0
  9  5  1  0  0  0  0
 10 21  1  0  0  0  0
 11 25  1  0  0  0  0
 11  7  2  0  0  0  0
 12  8  2  0  0  0  0
 12 11  1  0  0  0  0
 13  9  2  0  0  0  0
 13 14  1  0  0  0  0
 14 22  1  0  0  0  0
 14 10  2  0  0  0  0
 15 12  1  0  0  0  0
 16 13  1  0  0  0  0
 17 18  3  0  0  0  0
 17  8  1  0  0  0  0
 19 20  3  0  0  0  0
 19  9  1  0  0  0  0
 22 23  3  0  0  0  0
 25 26  3  0  0  0  0
M  END
