cn r1369 neutral
 OpenBabel10202110183D

 26 28  0  0  0  0  0  0  0  0999 V2000
   -0.2000   -1.5708    0.0000 N   0  0  0  0  0  0  0  0  0  0  0  0
   -0.2962    1.2584   -0.0000 N   0  0  0  0  0  0  0  0  0  0  0  0
    0.9221   -0.8366    0.0000 C   0  0  0  0  0  0  0  0  0  0  0  0
    0.8688    0.6056   -0.0000 C   0  0  0  0  0  0  0  0  0  0  0  0
   -1.3644   -0.9177    0.0000 C   0  0  0  0  0  0  0  0  0  0  0  0
   -1.4143    0.5253    0.0000 C   0  0  0  0  0  0  0  0  0  0  0  0
    2.1810   -1.5038    0.0000 C   0  0  0  0  0  0  0  0  0  0  0  0
    2.1081    1.3436   -0.0000 C   0  0  0  0  0  0  0  0  0  0  0  0
   -2.5976   -1.6645    0.0000 C   0  0  0  0  0  0  0  0  0  0  0  0
   -2.6968    1.1818    0.0000 C   0  0  0  0  0  0  0  0  0  0  0  0
    3.3450   -0.7643    0.0000 C   0  0  0  0  0  0  0  0  0  0  0  0
    3.3085    0.6682   -0.0000 C   0  0  0  0  0  0  0  0  0  0  0  0
   -3.8037   -0.9926   -0.0000 C   0  0  0  0  0  0  0  0  0  0  0  0
   -3.8525    0.4246    0.0000 C   0  0  0  0  0  0  0  0  0  0  0  0
    2.0891    2.7767   -0.0000 C   0  0  0  0  0  0  0  0  0  0  0  0
    2.1215    3.9388   -0.0000 N   0  0  0  0  0  0  0  0  0  0  0  0
   -4.8161    0.9219    0.0000 H   0  0  0  0  0  0  0  0  0  0  0  0
   -4.7306   -1.5555   -0.0000 H   0  0  0  0  0  0  0  0  0  0  0  0
    4.6211   -1.4217    0.0000 C   0  0  0  0  0  0  0  0  0  0  0  0
    5.6610   -1.9424    0.0000 N   0  0  0  0  0  0  0  0  0  0  0  0
    4.2412    1.2207   -0.0000 H   0  0  0  0  0  0  0  0  0  0  0  0
    2.1907   -2.5881    0.0000 H   0  0  0  0  0  0  0  0  0  0  0  0
   -2.5599   -3.0962   -0.0000 C   0  0  0  0  0  0  0  0  0  0  0  0
   -2.5697   -4.2592   -0.0000 N   0  0  0  0  0  0  0  0  0  0  0  0
   -2.7704    2.6121    0.0000 C   0  0  0  0  0  0  0  0  0  0  0  0
   -2.8864    3.7692    0.0000 N   0  0  0  0  0  0  0  0  0  0  0  0
  2  6  2  0  0  0  0
  2  4  1  0  0  0  0
  3  1  1  0  0  0  0
  4  3  1  0  0  0  0
  5  1  2  0  0  0  0
  6  5  1  0  0  0  0
  7  3  2  0  0  0  0
  7 22  1  0  0  0  0
  8  4  2  0  0  0  0
  9  5  1  0  0  0  0
 10  6  1  0  0  0  0
 11  7  1  0  0  0  0
 12 11  2  0  0  0  0
 12  8  1  0  0  0  0
 13  9  2  0  0  0  0
 14 13  1  0  0  0  0
 14 10  2  0  0  0  0
 15  8  1  0  0  0  0
 16 15  3  0  0  0  0
 17 14  1  0  0  0  0
 18 13  1  0  0  0  0
 19 11  1  0  0  0  0
 20 19  3  0  0  0  0
 21 12  1  0  0  0  0
 23  9  1  0  0  0  0
 24 23  3  0  0  0  0
 25 10  1  0  0  0  0
 25 26  3  0  0  0  0
M  END
