cn r1379 neutral
 OpenBabel10202110183D

 26 28  0  0  0  0  0  0  0  0999 V2000
    0.0000    1.1211   -0.0000 N   0  0  0  0  0  0  0  0  0  0  0  0
    0.0000   -1.7162   -0.0000 N   0  0  0  0  0  0  0  0  0  0  0  0
   -1.1409    0.4258   -0.0000 C   0  0  0  0  0  0  0  0  0  0  0  0
   -1.1448   -1.0188    0.0000 C   0  0  0  0  0  0  0  0  0  0  0  0
    1.1409    0.4258    0.0000 C   0  0  0  0  0  0  0  0  0  0  0  0
    1.1448   -1.0188   -0.0000 C   0  0  0  0  0  0  0  0  0  0  0  0
   -2.4050    1.1200   -0.0001 C   0  0  0  0  0  0  0  0  0  0  0  0
   -2.3821   -1.7269   -0.0000 C   0  0  0  0  0  0  0  0  0  0  0  0
    2.4050    1.1200    0.0001 C   0  0  0  0  0  0  0  0  0  0  0  0
    2.3821   -1.7269    0.0000 C   0  0  0  0  0  0  0  0  0  0  0  0
   -3.5821    0.4047   -0.0001 C   0  0  0  0  0  0  0  0  0  0  0  0
   -3.5706   -1.0281    0.0000 C   0  0  0  0  0  0  0  0  0  0  0  0
    3.5821    0.4047    0.0001 C   0  0  0  0  0  0  0  0  0  0  0  0
    3.5706   -1.0281   -0.0000 C   0  0  0  0  0  0  0  0  0  0  0  0
    4.5328    0.9258    0.0001 H   0  0  0  0  0  0  0  0  0  0  0  0
    2.4354    2.5530    0.0002 C   0  0  0  0  0  0  0  0  0  0  0  0
    2.5095    3.7132    0.0003 N   0  0  0  0  0  0  0  0  0  0  0  0
    2.3563   -2.8108   -0.0001 H   0  0  0  0  0  0  0  0  0  0  0  0
    4.8227   -1.7300   -0.0001 C   0  0  0  0  0  0  0  0  0  0  0  0
    5.8425   -2.2891   -0.0002 N   0  0  0  0  0  0  0  0  0  0  0  0
   -4.5328    0.9258   -0.0001 H   0  0  0  0  0  0  0  0  0  0  0  0
   -2.3563   -2.8108    0.0001 H   0  0  0  0  0  0  0  0  0  0  0  0
   -2.4354    2.5530   -0.0002 C   0  0  0  0  0  0  0  0  0  0  0  0
   -2.5095    3.7132   -0.0003 N   0  0  0  0  0  0  0  0  0  0  0  0
   -4.8227   -1.7300    0.0001 C   0  0  0  0  0  0  0  0  0  0  0  0
   -5.8425   -2.2891    0.0002 N   0  0  0  0  0  0  0  0  0  0  0  0
  1  3  2  0  0  0  0
  1  5  1  0  0  0  0
  2  6  1  0  0  0  0
  2  4  2  0  0  0  0
  3  4  1  0  0  0  0
  5  9  1  0  0  0  0
  6  5  2  0  0  0  0
  6 10  1  0  0  0  0
  7 11  2  0  0  0  0
  7  3  1  0  0  0  0
  8  4  1  0  0  0  0
  8 12  2  0  0  0  0
  8 22  1  0  0  0  0
  9 16  1  0  0  0  0
 11 12  1  0  0  0  0
 12 25  1  0  0  0  0
 13 15  1  0  0  0  0
 13  9  2  0  0  0  0
 14 10  2  0  0  0  0
 14 13  1  0  0  0  0
 16 17  3  0  0  0  0
 18 10  1  0  0  0  0
 19 14  1  0  0  0  0
 20 19  3  0  0  0  0
 21 11  1  0  0  0  0
 23  7  1  0  0  0  0
 24 23  3  0  0  0  0
 25 26  3  0  0  0  0
M  END
