cn r2378 neutral
 OpenBabel10202110183D

 26 28  0  0  0  0  0  0  0  0999 V2000
    0.0000   -1.4251   -0.0002 N   0  0  0  0  0  0  0  0  0  0  0  0
    0.0000    1.4251   -0.0002 N   0  0  0  0  0  0  0  0  0  0  0  0
   -1.1418   -0.7227   -0.0001 C   0  0  0  0  0  0  0  0  0  0  0  0
   -1.1418    0.7227   -0.0001 C   0  0  0  0  0  0  0  0  0  0  0  0
    1.1418   -0.7227   -0.0001 C   0  0  0  0  0  0  0  0  0  0  0  0
    1.1418    0.7227   -0.0001 C   0  0  0  0  0  0  0  0  0  0  0  0
   -2.3862   -1.4193   -0.0002 C   0  0  0  0  0  0  0  0  0  0  0  0
   -2.3862    1.4193   -0.0000 C   0  0  0  0  0  0  0  0  0  0  0  0
    2.3862   -1.4193   -0.0000 C   0  0  0  0  0  0  0  0  0  0  0  0
    2.3862    1.4193   -0.0002 C   0  0  0  0  0  0  0  0  0  0  0  0
   -3.5746   -0.7254   -0.0000 C   0  0  0  0  0  0  0  0  0  0  0  0
   -3.5746    0.7254    0.0001 C   0  0  0  0  0  0  0  0  0  0  0  0
    3.5746   -0.7254    0.0001 C   0  0  0  0  0  0  0  0  0  0  0  0
    3.5746    0.7254   -0.0000 C   0  0  0  0  0  0  0  0  0  0  0  0
    2.3695    2.5034   -0.0003 H   0  0  0  0  0  0  0  0  0  0  0  0
    4.8149    1.4446    0.0000 C   0  0  0  0  0  0  0  0  0  0  0  0
    5.8110    2.0446   -0.0001 N   0  0  0  0  0  0  0  0  0  0  0  0
   -2.3695   -2.5034   -0.0003 H   0  0  0  0  0  0  0  0  0  0  0  0
    2.3695   -2.5034    0.0001 H   0  0  0  0  0  0  0  0  0  0  0  0
   -5.8110   -2.0446   -0.0001 N   0  0  0  0  0  0  0  0  0  0  0  0
   -4.8149   -1.4446    0.0000 C   0  0  0  0  0  0  0  0  0  0  0  0
   -2.3695    2.5034    0.0001 H   0  0  0  0  0  0  0  0  0  0  0  0
   -4.8149    1.4446    0.0003 C   0  0  0  0  0  0  0  0  0  0  0  0
   -5.8110    2.0446    0.0003 N   0  0  0  0  0  0  0  0  0  0  0  0
    4.8149   -1.4446    0.0003 C   0  0  0  0  0  0  0  0  0  0  0  0
    5.8110   -2.0446    0.0003 N   0  0  0  0  0  0  0  0  0  0  0  0
  1  3  2  0  0  0  0
  1  5  1  0  0  0  0
  2  6  1  0  0  0  0
  2  4  2  0  0  0  0
  3  4  1  0  0  0  0
  4  8  1  0  0  0  0
  5  9  1  0  0  0  0
  6  5  2  0  0  0  0
  7  3  1  0  0  0  0
  7 11  2  0  0  0  0
  8 22  1  0  0  0  0
  8 12  2  0  0  0  0
  9 19  1  0  0  0  0
  9 13  2  0  0  0  0
 10  6  1  0  0  0  0
 10 14  2  0  0  0  0
 11 21  1  0  0  0  0
 11 12  1  0  0  0  0
 12 23  1  0  0  0  0
 13 25  1  0  0  0  0
 14 16  1  0  0  0  0
 14 13  1  0  0  0  0
 15 10  1  0  0  0  0
 17 16  3  0  0  0  0
 18  7  1  0  0  0  0
 20 21  3  0  0  0  0
 23 24  3  0  0  0  0
 25 26  3  0  0  0  0
M  END
