cn r236789 neutral
 OpenBabel10202110183D

 28 30  0  0  0  0  0  0  0  0999 V2000
    0.3501    1.4178    0.0000 N   0  0  0  0  0  0  0  0  0  0  0  0
    0.3501   -1.4178    0.0000 N   0  0  0  0  0  0  0  0  0  0  0  0
   -0.7889    0.7200    0.0000 C   0  0  0  0  0  0  0  0  0  0  0  0
   -0.7889   -0.7200    0.0000 C   0  0  0  0  0  0  0  0  0  0  0  0
    1.4950    0.7226    0.0000 C   0  0  0  0  0  0  0  0  0  0  0  0
    1.4950   -0.7226    0.0000 C   0  0  0  0  0  0  0  0  0  0  0  0
   -2.0421    1.4287    0.0000 C   0  0  0  0  0  0  0  0  0  0  0  0
   -2.0421   -1.4287    0.0000 C   0  0  0  0  0  0  0  0  0  0  0  0
    2.7364    1.4231    0.0000 C   0  0  0  0  0  0  0  0  0  0  0  0
    2.7364   -1.4231    0.0000 C   0  0  0  0  0  0  0  0  0  0  0  0
   -3.2384    0.7213    0.0000 C   0  0  0  0  0  0  0  0  0  0  0  0
   -3.2384   -0.7213    0.0000 C   0  0  0  0  0  0  0  0  0  0  0  0
    3.9230    0.7260    0.0000 C   0  0  0  0  0  0  0  0  0  0  0  0
    3.9230   -0.7260    0.0000 C   0  0  0  0  0  0  0  0  0  0  0  0
   -4.4891   -1.4168    0.0000 C   0  0  0  0  0  0  0  0  0  0  0  0
   -5.5068   -1.9787   -0.0000 N   0  0  0  0  0  0  0  0  0  0  0  0
   -4.4891    1.4168   -0.0000 C   0  0  0  0  0  0  0  0  0  0  0  0
   -5.5068    1.9787    0.0000 N   0  0  0  0  0  0  0  0  0  0  0  0
   -2.0284   -2.8582    0.0000 C   0  0  0  0  0  0  0  0  0  0  0  0
   -2.0243   -4.0208   -0.0000 N   0  0  0  0  0  0  0  0  0  0  0  0
    2.7188    2.5072    0.0000 H   0  0  0  0  0  0  0  0  0  0  0  0
    5.1653    1.4413    0.0000 C   0  0  0  0  0  0  0  0  0  0  0  0
    5.1653   -1.4413   -0.0000 C   0  0  0  0  0  0  0  0  0  0  0  0
    6.1643   -2.0362    0.0000 N   0  0  0  0  0  0  0  0  0  0  0  0
    6.1643    2.0362    0.0000 N   0  0  0  0  0  0  0  0  0  0  0  0
    2.7188   -2.5072    0.0000 H   0  0  0  0  0  0  0  0  0  0  0  0
   -2.0284    2.8582    0.0000 C   0  0  0  0  0  0  0  0  0  0  0  0
   -2.0243    4.0208   -0.0000 N   0  0  0  0  0  0  0  0  0  0  0  0
  1  5  2  0  0  0  0
  1  3  1  0  0  0  0
  4  3  1  0  0  0  0
  4  2  1  0  0  0  0
  6  5  1  0  0  0  0
  6  2  2  0  0  0  0
  7  3  2  0  0  0  0
  8  4  2  0  0  0  0
  9  5  1  0  0  0  0
 10  6  1  0  0  0  0
 11  7  1  0  0  0  0
 12 11  2  0  0  0  0
 12  8  1  0  0  0  0
 13  9  2  0  0  0  0
 14 13  1  0  0  0  0
 14 10  2  0  0  0  0
 15 16  3  0  0  0  0
 15 12  1  0  0  0  0
 17 11  1  0  0  0  0
 18 17  3  0  0  0  0
 19  8  1  0  0  0  0
 20 19  3  0  0  0  0
 21  9  1  0  0  0  0
 22 13  1  0  0  0  0
 23 14  1  0  0  0  0
 24 23  3  0  0  0  0
 25 22  3  0  0  0  0
 26 10  1  0  0  0  0
 27  7  1  0  0  0  0
 28 27  3  0  0  0  0
M  END
