cn r12346789 neutral
 OpenBabel10202110183D

 30 32  0  0  0  0  0  0  0  0999 V2000
    0.0000    1.4104   -0.0001 N   0  0  0  0  0  0  0  0  0  0  0  0
    0.0000   -1.4104    0.0001 N   0  0  0  0  0  0  0  0  0  0  0  0
   -1.1425    0.7198    0.0000 C   0  0  0  0  0  0  0  0  0  0  0  0
   -1.1425   -0.7198    0.0001 C   0  0  0  0  0  0  0  0  0  0  0  0
    1.1425   -0.7198   -0.0000 C   0  0  0  0  0  0  0  0  0  0  0  0
    1.1425    0.7198   -0.0001 C   0  0  0  0  0  0  0  0  0  0  0  0
   -2.3933   -1.4326    0.0001 C   0  0  0  0  0  0  0  0  0  0  0  0
   -2.3933    1.4326    0.0000 C   0  0  0  0  0  0  0  0  0  0  0  0
    2.3933   -1.4326   -0.0000 C   0  0  0  0  0  0  0  0  0  0  0  0
    2.3933    1.4326   -0.0001 C   0  0  0  0  0  0  0  0  0  0  0  0
   -3.5877    0.7218    0.0001 C   0  0  0  0  0  0  0  0  0  0  0  0
   -3.5877   -0.7218    0.0001 C   0  0  0  0  0  0  0  0  0  0  0  0
    3.5877    0.7218   -0.0001 C   0  0  0  0  0  0  0  0  0  0  0  0
    3.5877   -0.7218   -0.0001 C   0  0  0  0  0  0  0  0  0  0  0  0
    2.3833   -2.8611    0.0000 C   0  0  0  0  0  0  0  0  0  0  0  0
    2.3913   -4.0237    0.0001 N   0  0  0  0  0  0  0  0  0  0  0  0
    4.8394   -1.4148   -0.0001 C   0  0  0  0  0  0  0  0  0  0  0  0
    5.8582   -1.9748   -0.0001 N   0  0  0  0  0  0  0  0  0  0  0  0
    4.8394    1.4148   -0.0002 C   0  0  0  0  0  0  0  0  0  0  0  0
    5.8582    1.9748   -0.0002 N   0  0  0  0  0  0  0  0  0  0  0  0
    2.3833    2.8611   -0.0002 C   0  0  0  0  0  0  0  0  0  0  0  0
    2.3913    4.0237   -0.0002 N   0  0  0  0  0  0  0  0  0  0  0  0
   -2.3833    2.8611   -0.0000 C   0  0  0  0  0  0  0  0  0  0  0  0
   -2.3913    4.0237   -0.0001 N   0  0  0  0  0  0  0  0  0  0  0  0
   -4.8394    1.4148    0.0001 C   0  0  0  0  0  0  0  0  0  0  0  0
   -5.8582    1.9748    0.0001 N   0  0  0  0  0  0  0  0  0  0  0  0
   -4.8394   -1.4148    0.0002 C   0  0  0  0  0  0  0  0  0  0  0  0
   -5.8582   -1.9748    0.0002 N   0  0  0  0  0  0  0  0  0  0  0  0
   -2.3833   -2.8611    0.0002 C   0  0  0  0  0  0  0  0  0  0  0  0
   -2.3913   -4.0237    0.0002 N   0  0  0  0  0  0  0  0  0  0  0  0
  1  3  1  0  0  0  0
  2  4  1  0  0  0  0
  3  8  2  0  0  0  0
  3  4  1  0  0  0  0
  4  7  2  0  0  0  0
  5  2  2  0  0  0  0
  6  1  2  0  0  0  0
  6  5  1  0  0  0  0
  7 12  1  0  0  0  0
  7 29  1  0  0  0  0
  8 11  1  0  0  0  0
  9  5  1  0  0  0  0
  9 15  1  0  0  0  0
 10  6  1  0  0  0  0
 11 25  1  0  0  0  0
 11 12  2  0  0  0  0
 12 27  1  0  0  0  0
 13 10  2  0  0  0  0
 13 14  1  0  0  0  0
 14 17  1  0  0  0  0
 14  9  2  0  0  0  0
 15 16  3  0  0  0  0
 18 17  3  0  0  0  0
 19 13  1  0  0  0  0
 20 19  3  0  0  0  0
 21 10  1  0  0  0  0
 22 21  3  0  0  0  0
 23  8  1  0  0  0  0
 24 23  3  0  0  0  0
 25 26  3  0  0  0  0
 27 28  3  0  0  0  0
 29 30  3  0  0  0  0
M  END
