nh2 r13 neutral
 OpenBabel10202110183D

 26 28  0  0  0  0  0  0  0  0999 V2000
   -0.5393    1.2913    0.0067 N   0  0  0  0  0  0  0  0  0  0  0  0
   -0.5081   -1.5440   -0.0176 N   0  0  0  0  0  0  0  0  0  0  0  0
    1.7722    2.7206   -0.0749 N   0  0  0  0  0  0  0  0  0  0  0  0
    0.6012    0.6086   -0.0118 C   0  0  0  0  0  0  0  0  0  0  0  0
    0.6394   -0.8419   -0.0164 C   0  0  0  0  0  0  0  0  0  0  0  0
   -1.6898    0.5864    0.0075 C   0  0  0  0  0  0  0  0  0  0  0  0
   -1.6632   -0.8561   -0.0094 C   0  0  0  0  0  0  0  0  0  0  0  0
    1.8512    1.3496   -0.0150 C   0  0  0  0  0  0  0  0  0  0  0  0
    1.8865   -1.5133   -0.0055 C   0  0  0  0  0  0  0  0  0  0  0  0
    3.0381    0.6501    0.0012 C   0  0  0  0  0  0  0  0  0  0  0  0
   -2.9414    1.2670    0.0253 C   0  0  0  0  0  0  0  0  0  0  0  0
   -2.9057   -1.5615   -0.0132 C   0  0  0  0  0  0  0  0  0  0  0  0
    3.0623   -0.7817    0.0066 C   0  0  0  0  0  0  0  0  0  0  0  0
   -4.1154    0.5531    0.0224 C   0  0  0  0  0  0  0  0  0  0  0  0
   -4.0942   -0.8732    0.0022 C   0  0  0  0  0  0  0  0  0  0  0  0
    1.8884   -2.5983   -0.0077 H   0  0  0  0  0  0  0  0  0  0  0  0
   -2.9303    2.3527    0.0382 H   0  0  0  0  0  0  0  0  0  0  0  0
   -2.8699   -2.6463   -0.0279 H   0  0  0  0  0  0  0  0  0  0  0  0
   -5.0691    1.0723    0.0344 H   0  0  0  0  0  0  0  0  0  0  0  0
   -5.0344   -1.4174   -0.0008 H   0  0  0  0  0  0  0  0  0  0  0  0
    0.8572    3.1133    0.1020 H   0  0  0  0  0  0  0  0  0  0  0  0
    2.5667    3.2659    0.2203 H   0  0  0  0  0  0  0  0  0  0  0  0
    3.9818    1.1903   -0.0169 H   0  0  0  0  0  0  0  0  0  0  0  0
    4.3006   -1.4078   -0.0321 N   0  0  0  0  0  0  0  0  0  0  0  0
    4.3230   -2.3880    0.2094 H   0  0  0  0  0  0  0  0  0  0  0  0
    5.0942   -0.8862    0.3104 H   0  0  0  0  0  0  0  0  0  0  0  0
  1  6  1  0  0  0  0
  2  5  2  0  0  0  0
  2  7  1  0  0  0  0
  3  8  1  0  0  0  0
  3 21  1  0  0  0  0
  3 22  1  0  0  0  0
  4  1  2  0  0  0  0
  5  4  1  0  0  0  0
  5  9  1  0  0  0  0
  6 11  1  0  0  0  0
  7  6  2  0  0  0  0
  8  4  1  0  0  0  0
  8 10  2  0  0  0  0
  9 13  2  0  0  0  0
 10 13  1  0  0  0  0
 11 17  1  0  0  0  0
 12  7  1  0  0  0  0
 12 15  2  0  0  0  0
 14 11  2  0  0  0  0
 14 19  1  0  0  0  0
 15 14  1  0  0  0  0
 16  9  1  0  0  0  0
 18 12  1  0  0  0  0
 20 15  1  0  0  0  0
 23 10  1  0  0  0  0
 24 13  1  0  0  0  0
 24 25  1  0  0  0  0
 24 26  1  0  0  0  0
M  END
