nh2 r23 neutral
 OpenBabel10202110183D

 26 28  0  0  0  0  0  0  0  0999 V2000
    0.0104   -1.1882   -0.0779 N   0  0  0  0  0  0  0  0  0  0  0  0
   -0.0309    1.6530    0.1008 N   0  0  0  0  0  0  0  0  0  0  0  0
    1.1420   -0.4751   -0.0336 C   0  0  0  0  0  0  0  0  0  0  0  0
    1.1209    0.9729    0.0609 C   0  0  0  0  0  0  0  0  0  0  0  0
   -1.1497   -0.5046   -0.0351 C   0  0  0  0  0  0  0  0  0  0  0  0
   -1.1706    0.9362    0.0537 C   0  0  0  0  0  0  0  0  0  0  0  0
    2.4006   -1.1443   -0.0515 C   0  0  0  0  0  0  0  0  0  0  0  0
    2.3596    1.6781    0.0837 C   0  0  0  0  0  0  0  0  0  0  0  0
    3.5801   -0.4418    0.0022 C   0  0  0  0  0  0  0  0  0  0  0  0
   -2.3875   -1.2137   -0.0792 C   0  0  0  0  0  0  0  0  0  0  0  0
   -2.4286    1.6093    0.0930 C   0  0  0  0  0  0  0  0  0  0  0  0
    3.5591    1.0100    0.0346 C   0  0  0  0  0  0  0  0  0  0  0  0
   -3.5789   -0.5312   -0.0388 C   0  0  0  0  0  0  0  0  0  0  0  0
   -3.5996    0.8927    0.0481 C   0  0  0  0  0  0  0  0  0  0  0  0
    2.3228    2.7632    0.1154 H   0  0  0  0  0  0  0  0  0  0  0  0
   -2.3473   -2.2965   -0.1455 H   0  0  0  0  0  0  0  0  0  0  0  0
   -2.4200    2.6928    0.1594 H   0  0  0  0  0  0  0  0  0  0  0  0
   -4.5543    1.4098    0.0789 H   0  0  0  0  0  0  0  0  0  0  0  0
    4.8372   -1.0554   -0.0385 N   0  0  0  0  0  0  0  0  0  0  0  0
    4.8104   -2.0644    0.0364 H   0  0  0  0  0  0  0  0  0  0  0  0
    5.5177   -0.6540    0.5981 H   0  0  0  0  0  0  0  0  0  0  0  0
    2.3952   -2.2300   -0.0832 H   0  0  0  0  0  0  0  0  0  0  0  0
   -4.5182   -1.0756   -0.0732 H   0  0  0  0  0  0  0  0  0  0  0  0
    4.7978    1.6595    0.0801 N   0  0  0  0  0  0  0  0  0  0  0  0
    5.4921    1.2776   -0.5536 H   0  0  0  0  0  0  0  0  0  0  0  0
    4.7423    2.6673    0.0042 H   0  0  0  0  0  0  0  0  0  0  0  0
  1  5  2  0  0  0  0
  1  3  1  0  0  0  0
  3  4  1  0  0  0  0
  4  8  2  0  0  0  0
  4  2  1  0  0  0  0
  5  6  1  0  0  0  0
  6 11  1  0  0  0  0
  6  2  2  0  0  0  0
  7  3  2  0  0  0  0
  7  9  1  0  0  0  0
  8 15  1  0  0  0  0
  9 12  2  0  0  0  0
 10 13  2  0  0  0  0
 10  5  1  0  0  0  0
 11 17  1  0  0  0  0
 12 24  1  0  0  0  0
 12  8  1  0  0  0  0
 13 14  1  0  0  0  0
 14 18  1  0  0  0  0
 14 11  2  0  0  0  0
 16 10  1  0  0  0  0
 19  9  1  0  0  0  0
 19 20  1  0  0  0  0
 19 21  1  0  0  0  0
 22  7  1  0  0  0  0
 23 13  1  0  0  0  0
 25 24  1  0  0  0  0
 26 24  1  0  0  0  0
M  END
