p(ch3)2 r1 neutral
 OpenBabel10202110183D

 30 32  0  0  0  0  0  0  0  0999 V2000
   -0.2284   -0.6803    0.0001 N   0  0  0  0  0  0  0  0  0  0  0  0
   -1.5526    1.8265   -0.0000 N   0  0  0  0  0  0  0  0  0  0  0  0
    0.4738    0.4626    0.0000 C   0  0  0  0  0  0  0  0  0  0  0  0
   -0.2138    1.7430    0.0000 C   0  0  0  0  0  0  0  0  0  0  0  0
   -2.2447    0.6772    0.0000 C   0  0  0  0  0  0  0  0  0  0  0  0
   -1.5690   -0.5990    0.0000 C   0  0  0  0  0  0  0  0  0  0  0  0
    0.5461    2.9533    0.0000 C   0  0  0  0  0  0  0  0  0  0  0  0
    1.9202    0.4318    0.0000 C   0  0  0  0  0  0  0  0  0  0  0  0
   -3.6735    0.7097   -0.0000 C   0  0  0  0  0  0  0  0  0  0  0  0
   -2.3500   -1.7960    0.0001 C   0  0  0  0  0  0  0  0  0  0  0  0
    2.5881    1.6394    0.0000 C   0  0  0  0  0  0  0  0  0  0  0  0
    1.9130    2.8979    0.0000 C   0  0  0  0  0  0  0  0  0  0  0  0
   -3.7200   -1.7247    0.0001 C   0  0  0  0  0  0  0  0  0  0  0  0
   -4.3878   -0.4612   -0.0000 C   0  0  0  0  0  0  0  0  0  0  0  0
    0.0005    3.8914    0.0000 H   0  0  0  0  0  0  0  0  0  0  0  0
   -4.1577    1.6810   -0.0001 H   0  0  0  0  0  0  0  0  0  0  0  0
   -1.8251   -2.7461    0.0001 H   0  0  0  0  0  0  0  0  0  0  0  0
    2.4993    3.8121    0.0000 H   0  0  0  0  0  0  0  0  0  0  0  0
    3.6749    1.6336    0.0000 H   0  0  0  0  0  0  0  0  0  0  0  0
   -5.4735   -0.4357   -0.0000 H   0  0  0  0  0  0  0  0  0  0  0  0
   -4.3107   -2.6360    0.0001 H   0  0  0  0  0  0  0  0  0  0  0  0
    3.0030   -1.0861   -0.0001 P   0  0  0  0  0  0  0  0  0  0  0  0
    2.3317   -2.0735   -1.4344 C   0  0  0  0  0  0  0  0  0  0  0  0
    2.5198   -1.5301   -2.3655 H   0  0  0  0  0  0  0  0  0  0  0  0
    1.2630   -2.2780   -1.3419 H   0  0  0  0  0  0  0  0  0  0  0  0
    2.8849   -3.0177   -1.4823 H   0  0  0  0  0  0  0  0  0  0  0  0
    2.3321   -2.0736    1.4344 C   0  0  0  0  0  0  0  0  0  0  0  0
    2.5213   -1.5307    2.3656 H   0  0  0  0  0  0  0  0  0  0  0  0
    2.8848   -3.0182    1.4815 H   0  0  0  0  0  0  0  0  0  0  0  0
    1.2632   -2.2774    1.3426 H   0  0  0  0  0  0  0  0  0  0  0  0
  2  5  1  0  0  0  0
  2  4  2  0  0  0  0
  3  1  2  0  0  0  0
  4  7  1  0  0  0  0
  4  3  1  0  0  0  0
  5  6  1  0  0  0  0
  6  1  1  0  0  0  0
  6 10  2  0  0  0  0
  8 11  2  0  0  0  0
  8  3  1  0  0  0  0
  9 14  1  0  0  0  0
  9  5  2  0  0  0  0
 10 17  1  0  0  0  0
 12  7  2  0  0  0  0
 12 11  1  0  0  0  0
 12 18  1  0  0  0  0
 13 21  1  0  0  0  0
 13 10  1  0  0  0  0
 14 13  2  0  0  0  0
 15  7  1  0  0  0  0
 16  9  1  0  0  0  0
 19 11  1  0  0  0  0
 20 14  1  0  0  0  0
 22  8  1  0  0  0  0
 22 27  1  0  0  0  0
 23 25  1  0  0  0  0
 23 22  1  0  0  0  0
 24 23  1  0  0  0  0
 26 23  1  0  0  0  0
 27 29  1  0  0  0  0
 27 28  1  0  0  0  0
 30 27  1  0  0  0  0
M  END
