phenazine neutral
 OpenBabel10062113443D
Created by GaussView 6.0.16
 26 28  0  0  0  0  0  0  0  0999 V2000
    0.0610    1.4541   -0.0824 N   0  0  0  0  0  0  0  0  0  0  0  0
    0.0564   -1.4592    0.0692 N   0  0  0  0  0  0  0  0  0  0  0  0
    1.1626    0.7645   -0.0601 C   0  0  0  0  0  0  0  0  0  0  0  0
    1.1602   -0.7744    0.0199 C   0  0  0  0  0  0  0  0  0  0  0  0
   -1.2311   -0.7619    0.0488 C   0  0  0  0  0  0  0  0  0  0  0  0
   -1.2288    0.7624   -0.0305 C   0  0  0  0  0  0  0  0  0  0  0  0
    2.5144   -1.4968    0.0408 C   0  0  0  0  0  0  0  0  0  0  0  0
    2.5190    1.4809   -0.1141 C   0  0  0  0  0  0  0  0  0  0  0  0
   -2.4004   -1.4432    0.0987 C   0  0  0  0  0  0  0  0  0  0  0  0
   -2.3959    1.4489   -0.0517 C   0  0  0  0  0  0  0  0  0  0  0  0
    3.6754    0.7638   -0.0911 C   0  0  0  0  0  0  0  0  0  0  0  0
    3.6730   -0.7848   -0.0106 C   0  0  0  0  0  0  0  0  0  0  0  0
   -3.7321    0.6834    0.0046 C   0  0  0  0  0  0  0  0  0  0  0  0
   -3.7342   -0.6719    0.0751 C   0  0  0  0  0  0  0  0  0  0  0  0
    2.5476   -2.5648    0.0959 H   0  0  0  0  0  0  0  0  0  0  0  0
   -2.3981   -2.5118    0.1543 H   0  0  0  0  0  0  0  0  0  0  0  0
   -2.3903    2.5175   -0.1074 H   0  0  0  0  0  0  0  0  0  0  0  0
    4.6067   -1.3072    0.0050 H   0  0  0  0  0  0  0  0  0  0  0  0
    4.6107    1.2821   -0.1296 H   0  0  0  0  0  0  0  0  0  0  0  0
   -4.6614   -1.2045    0.1143 H   0  0  0  0  0  0  0  0  0  0  0  0
    2.5678    2.9081   -0.1890 O   0  0  0  0  0  0  0  0  0  0  0  0
    3.3676    3.2238    0.2379 H   0  0  0  0  0  0  0  0  0  0  0  0
   -5.0642    1.4558   -0.0191 C   0  0  0  0  0  0  0  0  0  0  0  0
   -6.0142    0.6966   -0.6052 F   0  0  0  0  0  0  0  0  0  0  0  0
   -5.4377    1.7476    1.2450 F   0  0  0  0  0  0  0  0  0  0  0  0
   -4.9083    2.6003   -0.7178 F   0  0  0  0  0  0  0  0  0  0  0  0
  1  6  1  0  0  0  0
  1  3  2  0  0  0  0
  2  5  1  0  0  0  0
  2  4  2  0  0  0  0
  3  4  1  0  0  0  0
  3  8  1  0  0  0  0
  4  7  1  0  0  0  0
  5  9  2  0  0  0  0
  5  6  1  0  0  0  0
  6 10  2  0  0  0  0
  7 12  2  0  0  0  0
  7 15  1  0  0  0  0
  8 11  2  0  0  0  0
  8 21  1  0  0  0  0
  9 14  1  0  0  0  0
  9 16  1  0  0  0  0
 10 13  1  0  0  0  0
 10 17  1  0  0  0  0
 11 12  1  0  0  0  0
 11 19  1  0  0  0  0
 12 18  1  0  0  0  0
 13 14  2  0  0  0  0
 13 23  1  0  0  0  0
 14 20  1  0  0  0  0
 21 22  1  0  0  0  0
 23 24  1  0  0  0  0
 23 25  1  0  0  0  0
 23 26  1  0  0  0  0
M  END
