phenazine neutral
 OpenBabel10062113443D
Created by GaussView 6.0.16
 24 26  0  0  0  0  0  0  0  0999 V2000
    0.1212    1.3924   -0.1845 N   0  0  0  0  0  0  0  0  0  0  0  0
    0.0640   -1.4164    0.6011 N   0  0  0  0  0  0  0  0  0  0  0  0
    1.1382    0.8161    0.3838 C   0  0  0  0  0  0  0  0  0  0  0  0
    1.1073   -0.6672    0.8006 C   0  0  0  0  0  0  0  0  0  0  0  0
   -1.1259   -0.8480   -0.0358 C   0  0  0  0  0  0  0  0  0  0  0  0
   -1.0968    0.6222   -0.4449 C   0  0  0  0  0  0  0  0  0  0  0  0
    2.3580   -1.2537    1.4697 C   0  0  0  0  0  0  0  0  0  0  0  0
    2.4198    1.6151    0.6585 C   0  0  0  0  0  0  0  0  0  0  0  0
   -2.2295   -1.5998   -0.2610 C   0  0  0  0  0  0  0  0  0  0  0  0
   -2.1758    1.1911   -1.0332 C   0  0  0  0  0  0  0  0  0  0  0  0
    3.4831    1.0196    1.2640 C   0  0  0  0  0  0  0  0  0  0  0  0
    3.4520   -0.4731    1.6835 C   0  0  0  0  0  0  0  0  0  0  0  0
   -3.4336    0.3423   -1.3016 C   0  0  0  0  0  0  0  0  0  0  0  0
   -3.4598   -0.9648   -0.9373 C   0  0  0  0  0  0  0  0  0  0  0  0
   -4.2860    0.7832   -1.7748 H   0  0  0  0  0  0  0  0  0  0  0  0
    4.3131   -0.9003    2.1534 H   0  0  0  0  0  0  0  0  0  0  0  0
   -2.2469   -2.6297    0.0289 H   0  0  0  0  0  0  0  0  0  0  0  0
    4.3638    1.5963    1.4555 H   0  0  0  0  0  0  0  0  0  0  0  0
    2.3697   -2.2807    1.7696 H   0  0  0  0  0  0  0  0  0  0  0  0
   -4.3341   -1.5540   -1.1198 H   0  0  0  0  0  0  0  0  0  0  0  0
    2.4854    2.9990    0.3044 O   0  0  0  0  0  0  0  0  0  0  0  0
    3.3436    3.3520    0.5507 H   0  0  0  0  0  0  0  0  0  0  0  0
   -2.1274    2.9001   -1.5287 S   0  0  0  0  0  0  0  0  0  0  0  0
   -3.2677    3.2259   -2.0850 H   0  0  0  0  0  0  0  0  0  0  0  0
  1  6  1  0  0  0  0
  1  3  2  0  0  0  0
  2  5  1  0  0  0  0
  2  4  2  0  0  0  0
  3  4  1  0  0  0  0
  3  8  1  0  0  0  0
  4  7  1  0  0  0  0
  5  9  2  0  0  0  0
  5  6  1  0  0  0  0
  6 10  2  0  0  0  0
  7 12  2  0  0  0  0
  7 19  1  0  0  0  0
  8 11  2  0  0  0  0
  8 21  1  0  0  0  0
  9 14  1  0  0  0  0
  9 17  1  0  0  0  0
 10 13  1  0  0  0  0
 10 23  1  0  0  0  0
 11 12  1  0  0  0  0
 11 18  1  0  0  0  0
 12 16  1  0  0  0  0
 13 15  1  0  0  0  0
 13 14  2  0  0  0  0
 14 20  1  0  0  0  0
 21 22  1  0  0  0  0
 23 24  1  0  0  0  0
M  END
