phenazine neutral
 OpenBabel10062113443D
Created by GaussView 6.0.16
 28 30  0  0  0  0  0  0  0  0999 V2000
    0.1481    1.3975   -0.2197 N   0  0  0  0  0  0  0  0  0  0  0  0
    0.0671   -1.3775    0.6755 N   0  0  0  0  0  0  0  0  0  0  0  0
    1.1503    0.8434    0.3952 C   0  0  0  0  0  0  0  0  0  0  0  0
    1.1078   -0.6228    0.8673 C   0  0  0  0  0  0  0  0  0  0  0  0
   -1.1083   -0.8323   -0.0069 C   0  0  0  0  0  0  0  0  0  0  0  0
   -1.0641    0.6182   -0.4803 C   0  0  0  0  0  0  0  0  0  0  0  0
    2.3437   -1.1852    1.5832 C   0  0  0  0  0  0  0  0  0  0  0  0
    2.4253    1.6523    0.6709 C   0  0  0  0  0  0  0  0  0  0  0  0
   -2.2121   -1.5878   -0.2167 C   0  0  0  0  0  0  0  0  0  0  0  0
   -2.1236    1.1627   -1.1252 C   0  0  0  0  0  0  0  0  0  0  0  0
    3.4779    1.0768    1.3133 C   0  0  0  0  0  0  0  0  0  0  0  0
    3.4355   -0.3991    1.7876 C   0  0  0  0  0  0  0  0  0  0  0  0
   -3.3936    0.3178   -1.3464 C   0  0  0  0  0  0  0  0  0  0  0  0
   -3.4323   -0.9727   -0.9281 C   0  0  0  0  0  0  0  0  0  0  0  0
   -4.2450    0.7487   -1.8306 H   0  0  0  0  0  0  0  0  0  0  0  0
    4.2870   -0.8100    2.2887 H   0  0  0  0  0  0  0  0  0  0  0  0
   -4.3099   -1.5624   -1.0918 H   0  0  0  0  0  0  0  0  0  0  0  0
    2.4868    2.6732    0.3565 H   0  0  0  0  0  0  0  0  0  0  0  0
   -2.2372   -2.6060    0.1110 H   0  0  0  0  0  0  0  0  0  0  0  0
    4.3577    1.6577    1.4959 H   0  0  0  0  0  0  0  0  0  0  0  0
   -2.0949    2.6429   -1.5491 C   0  0  0  0  0  0  0  0  0  0  0  0
   -1.9408    3.2578   -0.6871 H   0  0  0  0  0  0  0  0  0  0  0  0
   -1.2978    2.7991   -2.2456 H   0  0  0  0  0  0  0  0  0  0  0  0
   -3.0260    2.9004   -2.0091 H   0  0  0  0  0  0  0  0  0  0  0  0
    2.3480   -2.6454    2.0724 C   0  0  0  0  0  0  0  0  0  0  0  0
    1.3340   -3.3698    1.8974 O   0  0  0  0  0  0  0  0  0  0  0  0
    3.4912   -3.1678    2.7543 O   0  0  0  0  0  0  0  0  0  0  0  0
    3.3274   -4.0812    3.0003 H   0  0  0  0  0  0  0  0  0  0  0  0
  1  6  1  0  0  0  0
  1  3  2  0  0  0  0
  2  5  1  0  0  0  0
  2  4  2  0  0  0  0
  3  4  1  0  0  0  0
  3  8  1  0  0  0  0
  4  7  1  0  0  0  0
  5  9  2  0  0  0  0
  5  6  1  0  0  0  0
  6 10  2  0  0  0  0
  7 12  2  0  0  0  0
  7 25  1  0  0  0  0
  8 11  2  0  0  0  0
  8 18  1  0  0  0  0
  9 14  1  0  0  0  0
  9 19  1  0  0  0  0
 10 13  1  0  0  0  0
 10 21  1  0  0  0  0
 11 12  1  0  0  0  0
 11 20  1  0  0  0  0
 12 16  1  0  0  0  0
 13 15  1  0  0  0  0
 13 14  2  0  0  0  0
 14 17  1  0  0  0  0
 21 22  1  0  0  0  0
 21 23  1  0  0  0  0
 21 24  1  0  0  0  0
 25 26  2  0  0  0  0
 25 27  1  0  0  0  0
 27 28  1  0  0  0  0
M  END
