phenazine neutral
 OpenBabel10062113443D
Created by GaussView 5.0.9
 24 26  0  0  0  0  0  0  0  0999 V2000
    0.0437    1.4488   -0.0929 N   0  0  0  0  0  0  0  0  0  0  0  0
    0.0494   -1.4575   -0.0201 N   0  0  0  0  0  0  0  0  0  0  0  0
    1.1452    0.7643   -0.0615 C   0  0  0  0  0  0  0  0  0  0  0  0
    1.1469   -0.7714   -0.0326 C   0  0  0  0  0  0  0  0  0  0  0  0
   -1.2411   -0.7664   -0.0157 C   0  0  0  0  0  0  0  0  0  0  0  0
   -1.2451    0.7565   -0.0571 C   0  0  0  0  0  0  0  0  0  0  0  0
    2.5007   -1.4915   -0.0146 C   0  0  0  0  0  0  0  0  0  0  0  0
    2.4967    1.4870   -0.0524 C   0  0  0  0  0  0  0  0  0  0  0  0
   -2.4076   -1.4536    0.0193 C   0  0  0  0  0  0  0  0  0  0  0  0
   -2.4196    1.4402   -0.0592 C   0  0  0  0  0  0  0  0  0  0  0  0
    3.6575    0.7754   -0.0024 C   0  0  0  0  0  0  0  0  0  0  0  0
    3.6584   -0.7804   -0.0053 C   0  0  0  0  0  0  0  0  0  0  0  0
   -3.7478    0.6653   -0.0232 C   0  0  0  0  0  0  0  0  0  0  0  0
   -3.7413   -0.6900    0.0132 C   0  0  0  0  0  0  0  0  0  0  0  0
    4.5927   -1.3004    0.0019 H   0  0  0  0  0  0  0  0  0  0  0  0
   -4.6738    1.1994   -0.0257 H   0  0  0  0  0  0  0  0  0  0  0  0
   -2.3998   -2.5214    0.0519 H   0  0  0  0  0  0  0  0  0  0  0  0
    2.5364   -2.5522   -0.0040 H   0  0  0  0  0  0  0  0  0  0  0  0
   -4.6625   -1.2316    0.0375 H   0  0  0  0  0  0  0  0  0  0  0  0
   -2.4261    2.5086   -0.0866 H   0  0  0  0  0  0  0  0  0  0  0  0
    4.9947    1.5239    0.0040 C   0  0  0  0  0  0  0  0  0  0  0  0
    5.9949    2.0840    0.0087 N   0  0  0  0  0  0  0  0  0  0  0  0
    2.5425    3.2658   -0.1024 S   0  0  0  0  0  0  0  0  0  0  0  0
    3.6122    3.7012    0.5188 H   0  0  0  0  0  0  0  0  0  0  0  0
  1  6  1  0  0  0  0
  1  3  2  0  0  0  0
  2  5  1  0  0  0  0
  2  4  2  0  0  0  0
  3  4  1  0  0  0  0
  3  8  1  0  0  0  0
  4  7  1  0  0  0  0
  5  9  2  0  0  0  0
  5  6  1  0  0  0  0
  6 10  2  0  0  0  0
  7 12  2  0  0  0  0
  7 18  1  0  0  0  0
  8 11  2  0  0  0  0
  8 23  1  0  0  0  0
  9 14  1  0  0  0  0
  9 17  1  0  0  0  0
 10 13  1  0  0  0  0
 10 20  1  0  0  0  0
 11 12  1  0  0  0  0
 11 21  1  0  0  0  0
 12 15  1  0  0  0  0
 13 16  1  0  0  0  0
 13 14  2  0  0  0  0
 14 19  1  0  0  0  0
 21 22  3  0  0  0  0
 23 24  1  0  0  0  0
M  END
