oh r23 neutral
 OpenBabel10202110183D

 24 26  0  0  0  0  0  0  0  0999 V2000
    4.1025    1.3074    0.0000 O   0  0  0  0  0  0  0  0  0  0  0  0
   -0.6996    1.4231    0.0000 N   0  0  0  0  0  0  0  0  0  0  0  0
   -0.6996   -1.4231    0.0000 N   0  0  0  0  0  0  0  0  0  0  0  0
    0.4410    0.7248    0.0000 C   0  0  0  0  0  0  0  0  0  0  0  0
   -1.8494    0.7223    0.0000 C   0  0  0  0  0  0  0  0  0  0  0  0
    0.4410   -0.7248    0.0000 C   0  0  0  0  0  0  0  0  0  0  0  0
   -1.8494   -0.7223    0.0000 C   0  0  0  0  0  0  0  0  0  0  0  0
    1.6916    1.4134    0.0000 C   0  0  0  0  0  0  0  0  0  0  0  0
   -3.0974    1.4152    0.0000 C   0  0  0  0  0  0  0  0  0  0  0  0
    1.6916   -1.4134    0.0000 C   0  0  0  0  0  0  0  0  0  0  0  0
   -3.0974   -1.4152    0.0000 C   0  0  0  0  0  0  0  0  0  0  0  0
    2.8751    0.7225    0.0000 C   0  0  0  0  0  0  0  0  0  0  0  0
   -4.2778    0.7136    0.0000 C   0  0  0  0  0  0  0  0  0  0  0  0
    2.8751   -0.7225    0.0000 C   0  0  0  0  0  0  0  0  0  0  0  0
   -4.2778   -0.7136    0.0000 C   0  0  0  0  0  0  0  0  0  0  0  0
    1.6737    2.4998    0.0000 H   0  0  0  0  0  0  0  0  0  0  0  0
   -3.0732    2.5004    0.0000 H   0  0  0  0  0  0  0  0  0  0  0  0
    1.6737   -2.4998    0.0000 H   0  0  0  0  0  0  0  0  0  0  0  0
   -3.0732   -2.5004    0.0000 H   0  0  0  0  0  0  0  0  0  0  0  0
    4.0030    2.2693    0.0000 H   0  0  0  0  0  0  0  0  0  0  0  0
   -5.2251    1.2449    0.0000 H   0  0  0  0  0  0  0  0  0  0  0  0
   -5.2251   -1.2449    0.0000 H   0  0  0  0  0  0  0  0  0  0  0  0
    4.1025   -1.3074    0.0000 O   0  0  0  0  0  0  0  0  0  0  0  0
    4.0030   -2.2693    0.0000 H   0  0  0  0  0  0  0  0  0  0  0  0
  1 12  1  0  0  0  0
  4  2  1  0  0  0  0
  5  2  2  0  0  0  0
  6  4  1  0  0  0  0
  6  3  1  0  0  0  0
  7  5  1  0  0  0  0
  7  3  2  0  0  0  0
  8  4  2  0  0  0  0
  9  5  1  0  0  0  0
 10  6  2  0  0  0  0
 11  7  1  0  0  0  0
 12  8  1  0  0  0  0
 13 21  1  0  0  0  0
 13 15  1  0  0  0  0
 13  9  2  0  0  0  0
 14 12  2  0  0  0  0
 14 10  1  0  0  0  0
 15 11  2  0  0  0  0
 16  8  1  0  0  0  0
 17  9  1  0  0  0  0
 18 10  1  0  0  0  0
 19 11  1  0  0  0  0
 20  1  1  0  0  0  0
 22 15  1  0  0  0  0
 23 14  1  0  0  0  0
 24 23  1  0  0  0  0
M  END
