oh r236 neutral
 OpenBabel10202110183D

 25 27  0  0  0  0  0  0  0  0999 V2000
    4.1739    1.5687   -0.0000 O   0  0  0  0  0  0  0  0  0  0  0  0
    4.4457   -1.1232    0.0000 O   0  0  0  0  0  0  0  0  0  0  0  0
   -0.6250    1.1954   -0.0000 N   0  0  0  0  0  0  0  0  0  0  0  0
   -0.3758   -1.6792    0.0000 N   0  0  0  0  0  0  0  0  0  0  0  0
    0.5963    0.5918   -0.0000 C   0  0  0  0  0  0  0  0  0  0  0  0
    0.7090   -0.8560    0.0000 C   0  0  0  0  0  0  0  0  0  0  0  0
   -1.7032    0.3599   -0.0000 C   0  0  0  0  0  0  0  0  0  0  0  0
   -1.5959   -1.0685    0.0000 C   0  0  0  0  0  0  0  0  0  0  0  0
    1.7756    1.3744   -0.0000 C   0  0  0  0  0  0  0  0  0  0  0  0
    2.0095   -1.4199    0.0000 C   0  0  0  0  0  0  0  0  0  0  0  0
   -2.9880    0.9671   -0.0000 C   0  0  0  0  0  0  0  0  0  0  0  0
   -2.7946   -1.8311    0.0000 C   0  0  0  0  0  0  0  0  0  0  0  0
    3.0326    0.7831   -0.0000 C   0  0  0  0  0  0  0  0  0  0  0  0
    3.1412   -0.6156    0.0000 C   0  0  0  0  0  0  0  0  0  0  0  0
   -4.1480    0.2042   -0.0000 C   0  0  0  0  0  0  0  0  0  0  0  0
   -4.0360   -1.2036    0.0000 C   0  0  0  0  0  0  0  0  0  0  0  0
    1.6874    2.4564   -0.0000 H   0  0  0  0  0  0  0  0  0  0  0  0
    2.0925   -2.5054    0.0000 H   0  0  0  0  0  0  0  0  0  0  0  0
   -3.0261    2.3385   -0.0000 O   0  0  0  0  0  0  0  0  0  0  0  0
   -2.7076   -2.9143    0.0000 H   0  0  0  0  0  0  0  0  0  0  0  0
   -4.9425   -1.8055    0.0000 H   0  0  0  0  0  0  0  0  0  0  0  0
    4.9324    0.9674   -0.0000 H   0  0  0  0  0  0  0  0  0  0  0  0
    4.3982   -2.0866    0.0000 H   0  0  0  0  0  0  0  0  0  0  0  0
   -5.1165    0.6958   -0.0000 H   0  0  0  0  0  0  0  0  0  0  0  0
   -2.0775    2.5925   -0.0000 H   0  0  0  0  0  0  0  0  0  0  0  0
  1 13  1  0  0  0  0
  1 22  1  0  0  0  0
  2 23  1  0  0  0  0
  3  7  2  0  0  0  0
  3  5  1  0  0  0  0
  6  5  1  0  0  0  0
  6 10  2  0  0  0  0
  6  4  1  0  0  0  0
  8  7  1  0  0  0  0
  8 12  1  0  0  0  0
  8  4  2  0  0  0  0
  9 13  1  0  0  0  0
  9  5  2  0  0  0  0
 10 18  1  0  0  0  0
 11  7  1  0  0  0  0
 12 16  2  0  0  0  0
 12 20  1  0  0  0  0
 13 14  2  0  0  0  0
 14  2  1  0  0  0  0
 14 10  1  0  0  0  0
 15 11  2  0  0  0  0
 15 16  1  0  0  0  0
 16 21  1  0  0  0  0
 17  9  1  0  0  0  0
 19 11  1  0  0  0  0
 24 15  1  0  0  0  0
 25 19  1  0  0  0  0
M  END
