no2 r124 neutral
 OpenBabel10202110183D

 28 30  0  0  0  0  0  0  0  0999 V2000
   -1.5125   -2.9296    1.1432 O   0  0  0  0  0  0  0  0  0  0  0  0
   -1.4998   -2.9660   -1.0484 O   0  0  0  0  0  0  0  0  0  0  0  0
    1.0847   -1.4587    0.0135 N   0  0  0  0  0  0  0  0  0  0  0  0
    1.6992    1.3103   -0.0406 N   0  0  0  0  0  0  0  0  0  0  0  0
   -1.4629   -2.4094    0.0386 N   0  0  0  0  0  0  0  0  0  0  0  0
    0.1241   -0.5277    0.0151 C   0  0  0  0  0  0  0  0  0  0  0  0
    2.6664    0.3837   -0.0463 C   0  0  0  0  0  0  0  0  0  0  0  0
    0.4359    0.8802    0.0057 C   0  0  0  0  0  0  0  0  0  0  0  0
    2.3525   -1.0342   -0.0077 C   0  0  0  0  0  0  0  0  0  0  0  0
   -1.2461   -0.9444    0.0162 C   0  0  0  0  0  0  0  0  0  0  0  0
    4.0335    0.7917   -0.0909 C   0  0  0  0  0  0  0  0  0  0  0  0
   -0.6630    1.7985    0.0044 C   0  0  0  0  0  0  0  0  0  0  0  0
    3.4170   -1.9875   -0.0058 C   0  0  0  0  0  0  0  0  0  0  0  0
   -2.2531   -0.0098   -0.0092 C   0  0  0  0  0  0  0  0  0  0  0  0
    5.0249   -0.1552   -0.0881 C   0  0  0  0  0  0  0  0  0  0  0  0
   -1.9607    1.3806   -0.0283 C   0  0  0  0  0  0  0  0  0  0  0  0
    4.7156   -1.5525   -0.0442 C   0  0  0  0  0  0  0  0  0  0  0  0
    3.1568   -3.0401    0.0248 H   0  0  0  0  0  0  0  0  0  0  0  0
    6.0657    0.1523   -0.1183 H   0  0  0  0  0  0  0  0  0  0  0  0
   -2.7818    2.0858   -0.0585 H   0  0  0  0  0  0  0  0  0  0  0  0
    5.5284   -2.2721   -0.0429 H   0  0  0  0  0  0  0  0  0  0  0  0
    4.2462    1.8550   -0.1204 H   0  0  0  0  0  0  0  0  0  0  0  0
   -3.6793   -0.3951   -0.0163 N   0  0  0  0  0  0  0  0  0  0  0  0
   -4.5029    0.5176   -0.0381 O   0  0  0  0  0  0  0  0  0  0  0  0
   -3.9426   -1.5930    0.0004 O   0  0  0  0  0  0  0  0  0  0  0  0
   -0.4036    3.2502    0.0516 N   0  0  0  0  0  0  0  0  0  0  0  0
   -0.9241    3.9357   -0.8265 O   0  0  0  0  0  0  0  0  0  0  0  0
    0.2864    3.6601    0.9771 O   0  0  0  0  0  0  0  0  0  0  0  0
  2  5  2  0  0  0  0
  3  6  1  0  0  0  0
  4  8  1  0  0  0  0
  5  1  2  0  0  0  0
  6 10  1  0  0  0  0
  7  4  2  0  0  0  0
  7  9  1  0  0  0  0
  8  6  2  0  0  0  0
  9 13  1  0  0  0  0
  9  3  2  0  0  0  0
 10  5  1  0  0  0  0
 11 15  2  0  0  0  0
 11  7  1  0  0  0  0
 12  8  1  0  0  0  0
 12 26  1  0  0  0  0
 13 18  1  0  0  0  0
 14 10  2  0  0  0  0
 15 17  1  0  0  0  0
 16 14  1  0  0  0  0
 16 12  2  0  0  0  0
 17 21  1  0  0  0  0
 17 13  2  0  0  0  0
 19 15  1  0  0  0  0
 20 16  1  0  0  0  0
 22 11  1  0  0  0  0
 23 14  1  0  0  0  0
 23 25  2  0  0  0  0
 24 23  2  0  0  0  0
 26 28  2  0  0  0  0
 27 26  2  0  0  0  0
M  END
