no2 r2378 neutral
 OpenBabel10202110183D

 30 32  0  0  0  0  0  0  0  0999 V2000
   -0.0001    1.4251   -0.0001 N   0  0  0  0  0  0  0  0  0  0  0  0
    0.0000   -1.4251    0.0000 N   0  0  0  0  0  0  0  0  0  0  0  0
    1.1407    0.7225    0.0007 C   0  0  0  0  0  0  0  0  0  0  0  0
   -1.1407   -0.7224    0.0008 C   0  0  0  0  0  0  0  0  0  0  0  0
    1.1407   -0.7224   -0.0008 C   0  0  0  0  0  0  0  0  0  0  0  0
   -1.1407    0.7224   -0.0008 C   0  0  0  0  0  0  0  0  0  0  0  0
    2.3874    1.4206   -0.0132 C   0  0  0  0  0  0  0  0  0  0  0  0
   -2.3875   -1.4205   -0.0131 C   0  0  0  0  0  0  0  0  0  0  0  0
    2.3876   -1.4204    0.0131 C   0  0  0  0  0  0  0  0  0  0  0  0
   -2.3876    1.4205    0.0131 C   0  0  0  0  0  0  0  0  0  0  0  0
    3.5559    0.7154   -0.0151 C   0  0  0  0  0  0  0  0  0  0  0  0
   -3.5559   -0.7153   -0.0149 C   0  0  0  0  0  0  0  0  0  0  0  0
    3.5559   -0.7151    0.0149 C   0  0  0  0  0  0  0  0  0  0  0  0
   -3.5560    0.7152    0.0149 C   0  0  0  0  0  0  0  0  0  0  0  0
    2.3895   -2.5038    0.0471 H   0  0  0  0  0  0  0  0  0  0  0  0
   -2.3896    2.5039    0.0471 H   0  0  0  0  0  0  0  0  0  0  0  0
   -2.3894   -2.5039   -0.0471 H   0  0  0  0  0  0  0  0  0  0  0  0
    2.3895    2.5040   -0.0474 H   0  0  0  0  0  0  0  0  0  0  0  0
   -4.8126    1.4721    0.1945 N   0  0  0  0  0  0  0  0  0  0  0  0
   -5.6147    1.0057    0.9979 O   0  0  0  0  0  0  0  0  0  0  0  0
   -4.9274    2.5248   -0.4226 O   0  0  0  0  0  0  0  0  0  0  0  0
   -4.8125   -1.4723   -0.1945 N   0  0  0  0  0  0  0  0  0  0  0  0
   -4.9274   -2.5249    0.4228 O   0  0  0  0  0  0  0  0  0  0  0  0
   -5.6145   -1.0060   -0.9980 O   0  0  0  0  0  0  0  0  0  0  0  0
    4.8126    1.4722   -0.1944 N   0  0  0  0  0  0  0  0  0  0  0  0
    4.9262    2.5264    0.4205 O   0  0  0  0  0  0  0  0  0  0  0  0
    5.6161    1.0043   -0.9955 O   0  0  0  0  0  0  0  0  0  0  0  0
    4.8126   -1.4720    0.1945 N   0  0  0  0  0  0  0  0  0  0  0  0
    5.6133   -1.0072    1.0001 O   0  0  0  0  0  0  0  0  0  0  0  0
    4.9285   -2.5234   -0.4248 O   0  0  0  0  0  0  0  0  0  0  0  0
  1  3  1  0  0  0  0
  2  4  2  0  0  0  0
  5  2  1  0  0  0  0
  5  3  1  0  0  0  0
  5  9  2  0  0  0  0
  6  1  2  0  0  0  0
  6  4  1  0  0  0  0
  6 10  1  0  0  0  0
  7  3  2  0  0  0  0
  8  4  1  0  0  0  0
  9 13  1  0  0  0  0
  9 15  1  0  0  0  0
 10 14  2  0  0  0  0
 10 16  1  0  0  0  0
 11  7  1  0  0  0  0
 11 13  2  0  0  0  0
 12  8  2  0  0  0  0
 12 14  1  0  0  0  0
 13 28  1  0  0  0  0
 14 19  1  0  0  0  0
 17  8  1  0  0  0  0
 18  7  1  0  0  0  0
 19 20  2  0  0  0  0
 21 19  2  0  0  0  0
 22 12  1  0  0  0  0
 22 23  2  0  0  0  0
 24 22  2  0  0  0  0
 25 11  1  0  0  0  0
 25 26  2  0  0  0  0
 27 25  2  0  0  0  0
 28 29  2  0  0  0  0
 30 28  2  0  0  0  0
M  END
