c6h5 r2 neutral
 OpenBabel10202110183D

 32 35  0  0  0  0  0  0  0  0999 V2000
    1.6061   -1.1953   -0.1567 N   0  0  0  0  0  0  0  0  0  0  0  0
    2.3206    1.5386    0.1990 N   0  0  0  0  0  0  0  0  0  0  0  0
   -1.6980    0.3557    0.0633 C   0  0  0  0  0  0  0  0  0  0  0  0
    0.6728   -0.2391   -0.0217 C   0  0  0  0  0  0  0  0  0  0  0  0
    1.0389    1.1490    0.1557 C   0  0  0  0  0  0  0  0  0  0  0  0
   -0.7077   -0.5958   -0.0643 C   0  0  0  0  0  0  0  0  0  0  0  0
   -3.1359   -0.0143    0.0161 C   0  0  0  0  0  0  0  0  0  0  0  0
    2.8905   -0.8068   -0.1162 C   0  0  0  0  0  0  0  0  0  0  0  0
    3.2548    0.5825    0.0653 C   0  0  0  0  0  0  0  0  0  0  0  0
   -1.3165    1.7325    0.2429 C   0  0  0  0  0  0  0  0  0  0  0  0
   -0.0040    2.1173    0.2884 C   0  0  0  0  0  0  0  0  0  0  0  0
    3.9268   -1.7818   -0.2549 C   0  0  0  0  0  0  0  0  0  0  0  0
    4.6383    0.9384    0.1006 C   0  0  0  0  0  0  0  0  0  0  0  0
   -3.5966   -1.2024    0.6113 C   0  0  0  0  0  0  0  0  0  0  0  0
   -4.0724    0.8127   -0.6302 C   0  0  0  0  0  0  0  0  0  0  0  0
    5.2433   -1.3993   -0.2162 C   0  0  0  0  0  0  0  0  0  0  0  0
    5.6025   -0.0275   -0.0369 C   0  0  0  0  0  0  0  0  0  0  0  0
   -4.9458   -1.5541    0.5572 C   0  0  0  0  0  0  0  0  0  0  0  0
   -5.4217    0.4601   -0.6860 C   0  0  0  0  0  0  0  0  0  0  0  0
   -5.8646   -0.7247   -0.0922 C   0  0  0  0  0  0  0  0  0  0  0  0
   -0.9436   -1.6419   -0.2306 H   0  0  0  0  0  0  0  0  0  0  0  0
   -2.0966    2.4767    0.3693 H   0  0  0  0  0  0  0  0  0  0  0  0
    0.2827    3.1537    0.4358 H   0  0  0  0  0  0  0  0  0  0  0  0
    3.6309   -2.8172   -0.3904 H   0  0  0  0  0  0  0  0  0  0  0  0
    4.8870    1.9859    0.2380 H   0  0  0  0  0  0  0  0  0  0  0  0
   -2.8959   -1.8417    1.1398 H   0  0  0  0  0  0  0  0  0  0  0  0
   -3.7391    1.7248   -1.1164 H   0  0  0  0  0  0  0  0  0  0  0  0
    6.0279   -2.1426   -0.3227 H   0  0  0  0  0  0  0  0  0  0  0  0
    6.6531    0.2460   -0.0101 H   0  0  0  0  0  0  0  0  0  0  0  0
   -5.2809   -2.4724    1.0310 H   0  0  0  0  0  0  0  0  0  0  0  0
   -6.1256    1.1087   -1.1997 H   0  0  0  0  0  0  0  0  0  0  0  0
   -6.9150   -0.9977   -0.1329 H   0  0  0  0  0  0  0  0  0  0  0  0
  1  8  2  0  0  0  0
  1  4  1  0  0  0  0
  3 10  1  0  0  0  0
  4  5  2  0  0  0  0
  5  2  1  0  0  0  0
  5 11  1  0  0  0  0
  6  4  1  0  0  0  0
  6  3  2  0  0  0  0
  7  3  1  0  0  0  0
  7 14  1  0  0  0  0
  8  9  1  0  0  0  0
  9 13  1  0  0  0  0
  9  2  2  0  0  0  0
 10 11  2  0  0  0  0
 10 22  1  0  0  0  0
 11 23  1  0  0  0  0
 12 16  2  0  0  0  0
 12  8  1  0  0  0  0
 13 25  1  0  0  0  0
 14 26  1  0  0  0  0
 15  7  2  0  0  0  0
 16 17  1  0  0  0  0
 17 29  1  0  0  0  0
 17 13  2  0  0  0  0
 18 14  2  0  0  0  0
 18 30  1  0  0  0  0
 19 15  1  0  0  0  0
 19 20  2  0  0  0  0
 20 18  1  0  0  0  0
 21  6  1  0  0  0  0
 24 12  1  0  0  0  0
 27 15  1  0  0  0  0
 28 16  1  0  0  0  0
 31 19  1  0  0  0  0
 32 20  1  0  0  0  0
M  END
