cooh r1 neutral
 OpenBabel10202110183D

 25 27  0  0  0  0  0  0  0  0999 V2000
    1.8856   -2.5196   -0.0004 O   0  0  0  0  0  0  0  0  0  0  0  0
    3.9277   -1.6240    0.0005 O   0  0  0  0  0  0  0  0  0  0  0  0
   -0.1853   -0.8757   -0.0001 N   0  0  0  0  0  0  0  0  0  0  0  0
   -1.1195    1.7878    0.0000 N   0  0  0  0  0  0  0  0  0  0  0  0
    0.6809    0.1507   -0.0001 C   0  0  0  0  0  0  0  0  0  0  0  0
    0.1935    1.5141   -0.0000 C   0  0  0  0  0  0  0  0  0  0  0  0
   -1.5019   -0.6115   -0.0000 C   0  0  0  0  0  0  0  0  0  0  0  0
   -1.9746    0.7546    0.0001 C   0  0  0  0  0  0  0  0  0  0  0  0
    2.1008   -0.0922   -0.0000 C   0  0  0  0  0  0  0  0  0  0  0  0
    1.1298    2.5924   -0.0001 C   0  0  0  0  0  0  0  0  0  0  0  0
    2.9544    0.9889   -0.0000 C   0  0  0  0  0  0  0  0  0  0  0  0
   -2.4487   -1.6790   -0.0001 C   0  0  0  0  0  0  0  0  0  0  0  0
   -3.3824    1.0013    0.0001 C   0  0  0  0  0  0  0  0  0  0  0  0
    2.4753    2.3294   -0.0001 C   0  0  0  0  0  0  0  0  0  0  0  0
   -3.7917   -1.3989    0.0000 C   0  0  0  0  0  0  0  0  0  0  0  0
   -4.2630   -0.0495    0.0001 C   0  0  0  0  0  0  0  0  0  0  0  0
    2.7223   -1.4742    0.0001 C   0  0  0  0  0  0  0  0  0  0  0  0
    0.7355    3.6033   -0.0001 H   0  0  0  0  0  0  0  0  0  0  0  0
    4.0208    0.7887    0.0001 H   0  0  0  0  0  0  0  0  0  0  0  0
   -2.0760   -2.6983   -0.0001 H   0  0  0  0  0  0  0  0  0  0  0  0
   -3.7146    2.0343    0.0002 H   0  0  0  0  0  0  0  0  0  0  0  0
    3.1916    3.1450   -0.0002 H   0  0  0  0  0  0  0  0  0  0  0  0
   -4.5126   -2.2109   -0.0000 H   0  0  0  0  0  0  0  0  0  0  0  0
   -5.3325    0.1372    0.0002 H   0  0  0  0  0  0  0  0  0  0  0  0
    0.9474   -2.1920   -0.0004 H   0  0  0  0  0  0  0  0  0  0  0  0
  1 17  1  0  0  0  0
  3  5  2  0  0  0  0
  3  7  1  0  0  0  0
  4  8  1  0  0  0  0
  5  6  1  0  0  0  0
  5  9  1  0  0  0  0
  6  4  2  0  0  0  0
  7  8  1  0  0  0  0
  8 13  2  0  0  0  0
  9 17  1  0  0  0  0
 10  6  1  0  0  0  0
 11  9  2  0  0  0  0
 11 19  1  0  0  0  0
 12  7  2  0  0  0  0
 12 15  1  0  0  0  0
 13 21  1  0  0  0  0
 14 10  2  0  0  0  0
 14 11  1  0  0  0  0
 15 16  2  0  0  0  0
 16 13  1  0  0  0  0
 16 24  1  0  0  0  0
 17  2  2  0  0  0  0
 18 10  1  0  0  0  0
 20 12  1  0  0  0  0
 22 14  1  0  0  0  0
 23 15  1  0  0  0  0
 25  1  1  0  0  0  0
M  END
