cn r16 neutral
 OpenBabel10202110183D

 24 26  0  0  0  0  0  0  0  0999 V2000
   -0.6640   -1.2531    0.0000 N   0  0  0  0  0  0  0  0  0  0  0  0
    0.6640    1.2532    0.0000 N   0  0  0  0  0  0  0  0  0  0  0  0
   -1.3469   -0.1048    0.0000 C   0  0  0  0  0  0  0  0  0  0  0  0
   -0.6751    1.1746    0.0000 C   0  0  0  0  0  0  0  0  0  0  0  0
    0.6750   -1.1745    0.0000 C   0  0  0  0  0  0  0  0  0  0  0  0
    1.3469    0.1049    0.0000 C   0  0  0  0  0  0  0  0  0  0  0  0
   -2.7888   -0.1257   -0.0000 C   0  0  0  0  0  0  0  0  0  0  0  0
   -1.4453    2.3774   -0.0000 C   0  0  0  0  0  0  0  0  0  0  0  0
    1.4452   -2.3774   -0.0000 C   0  0  0  0  0  0  0  0  0  0  0  0
    2.7887    0.1257   -0.0000 C   0  0  0  0  0  0  0  0  0  0  0  0
   -3.4918    1.0630   -0.0000 C   0  0  0  0  0  0  0  0  0  0  0  0
   -2.8157    2.3157   -0.0000 C   0  0  0  0  0  0  0  0  0  0  0  0
    2.8156   -2.3157   -0.0000 C   0  0  0  0  0  0  0  0  0  0  0  0
    3.4917   -1.0630   -0.0000 C   0  0  0  0  0  0  0  0  0  0  0  0
   -0.9086    3.3204   -0.0000 H   0  0  0  0  0  0  0  0  0  0  0  0
    0.9085   -3.3204   -0.0000 H   0  0  0  0  0  0  0  0  0  0  0  0
   -3.4034    3.2280   -0.0000 H   0  0  0  0  0  0  0  0  0  0  0  0
    3.4033   -3.2280   -0.0000 H   0  0  0  0  0  0  0  0  0  0  0  0
   -4.5763    1.0386   -0.0000 H   0  0  0  0  0  0  0  0  0  0  0  0
   -3.4824   -1.3798   -0.0000 C   0  0  0  0  0  0  0  0  0  0  0  0
   -4.0813   -2.3772    0.0000 N   0  0  0  0  0  0  0  0  0  0  0  0
    4.5763   -1.0386   -0.0000 H   0  0  0  0  0  0  0  0  0  0  0  0
    3.4824    1.3798   -0.0000 C   0  0  0  0  0  0  0  0  0  0  0  0
    4.0817    2.3770    0.0000 N   0  0  0  0  0  0  0  0  0  0  0  0
  3  1  1  0  0  0  0
  4  3  1  0  0  0  0
  4  2  1  0  0  0  0
  5  1  2  0  0  0  0
  6  5  1  0  0  0  0
  6  2  2  0  0  0  0
  7 11  1  0  0  0  0
  7  3  2  0  0  0  0
  8  4  2  0  0  0  0
  9  5  1  0  0  0  0
 10 14  2  0  0  0  0
 10  6  1  0  0  0  0
 11 12  2  0  0  0  0
 12  8  1  0  0  0  0
 13 14  1  0  0  0  0
 13  9  2  0  0  0  0
 15  8  1  0  0  0  0
 16  9  1  0  0  0  0
 17 12  1  0  0  0  0
 18 13  1  0  0  0  0
 19 11  1  0  0  0  0
 20  7  1  0  0  0  0
 20 21  3  0  0  0  0
 22 14  1  0  0  0  0
 23 10  1  0  0  0  0
 23 24  3  0  0  0  0
M  END
