cn r128 neutral
 OpenBabel10202110183D

 25 27  0  0  0  0  0  0  0  0999 V2000
    0.3797   -2.0417   -0.0000 N   0  0  0  0  0  0  0  0  0  0  0  0
    0.1686    0.7919   -0.0000 N   0  0  0  0  0  0  0  0  0  0  0  0
   -0.8134   -1.4293   -0.0000 C   0  0  0  0  0  0  0  0  0  0  0  0
   -0.9161    0.0110   -0.0000 C   0  0  0  0  0  0  0  0  0  0  0  0
    1.4700   -1.2626   -0.0000 C   0  0  0  0  0  0  0  0  0  0  0  0
    1.3617    0.1807   -0.0000 C   0  0  0  0  0  0  0  0  0  0  0  0
   -2.0039   -2.2180   -0.0000 C   0  0  0  0  0  0  0  0  0  0  0  0
   -2.2218    0.6211   -0.0000 C   0  0  0  0  0  0  0  0  0  0  0  0
    2.7681   -1.8619    0.0000 C   0  0  0  0  0  0  0  0  0  0  0  0
    2.5467    0.9738   -0.0000 C   0  0  0  0  0  0  0  0  0  0  0  0
   -3.2327   -1.6167    0.0000 C   0  0  0  0  0  0  0  0  0  0  0  0
   -3.3533   -0.1885    0.0000 C   0  0  0  0  0  0  0  0  0  0  0  0
    3.8887   -1.0785    0.0000 C   0  0  0  0  0  0  0  0  0  0  0  0
    3.7792    0.3567    0.0000 C   0  0  0  0  0  0  0  0  0  0  0  0
    2.4453    2.0534   -0.0000 H   0  0  0  0  0  0  0  0  0  0  0  0
    4.8771   -1.5252    0.0000 H   0  0  0  0  0  0  0  0  0  0  0  0
   -2.3245    2.0479   -0.0000 C   0  0  0  0  0  0  0  0  0  0  0  0
   -2.4244    3.2066   -0.0000 N   0  0  0  0  0  0  0  0  0  0  0  0
    2.8288   -2.9450    0.0000 H   0  0  0  0  0  0  0  0  0  0  0  0
   -4.6693    0.3791    0.0000 C   0  0  0  0  0  0  0  0  0  0  0  0
   -5.7564    0.7928    0.0000 N   0  0  0  0  0  0  0  0  0  0  0  0
   -1.8982   -3.2976    0.0000 H   0  0  0  0  0  0  0  0  0  0  0  0
   -4.1409   -2.2089    0.0000 H   0  0  0  0  0  0  0  0  0  0  0  0
    4.9804    1.1425    0.0000 C   0  0  0  0  0  0  0  0  0  0  0  0
    5.9653    1.7618    0.0000 N   0  0  0  0  0  0  0  0  0  0  0  0
  1  5  2  0  0  0  0
  1  3  1  0  0  0  0
  2  6  2  0  0  0  0
  2  4  1  0  0  0  0
  4  3  1  0  0  0  0
  6 10  1  0  0  0  0
  6  5  1  0  0  0  0
  7  3  2  0  0  0  0
  8  4  2  0  0  0  0
  9  5  1  0  0  0  0
 10 14  2  0  0  0  0
 11  7  1  0  0  0  0
 11 23  1  0  0  0  0
 12 11  2  0  0  0  0
 12  8  1  0  0  0  0
 12 20  1  0  0  0  0
 13 14  1  0  0  0  0
 13  9  2  0  0  0  0
 13 16  1  0  0  0  0
 14 24  1  0  0  0  0
 15 10  1  0  0  0  0
 17  8  1  0  0  0  0
 18 17  3  0  0  0  0
 19  9  1  0  0  0  0
 20 21  3  0  0  0  0
 22  7  1  0  0  0  0
 24 25  3  0  0  0  0
M  END
