oh r1 neutral
 OpenBabel10202110183D

 23 25  0  0  0  0  0  0  0  0999 V2000
    2.4331    2.3033   -0.0002 O   0  0  0  0  0  0  0  0  0  0  0  0
   -0.3548   -1.6240    0.0001 N   0  0  0  0  0  0  0  0  0  0  0  0
   -0.0373    1.1972   -0.0001 N   0  0  0  0  0  0  0  0  0  0  0  0
    0.8670   -1.0679    0.0000 C   0  0  0  0  0  0  0  0  0  0  0  0
   -1.4145   -0.7990    0.0001 C   0  0  0  0  0  0  0  0  0  0  0  0
    1.0119    0.3697   -0.0001 C   0  0  0  0  0  0  0  0  0  0  0  0
   -1.2609    0.6410   -0.0000 C   0  0  0  0  0  0  0  0  0  0  0  0
    2.0404   -1.8789    0.0001 C   0  0  0  0  0  0  0  0  0  0  0  0
   -2.7341   -1.3494    0.0002 C   0  0  0  0  0  0  0  0  0  0  0  0
    2.3272    0.9543   -0.0001 C   0  0  0  0  0  0  0  0  0  0  0  0
   -2.4240    1.4682   -0.0000 C   0  0  0  0  0  0  0  0  0  0  0  0
    3.2759   -1.2765   -0.0000 C   0  0  0  0  0  0  0  0  0  0  0  0
    3.4343    0.1404   -0.0001 C   0  0  0  0  0  0  0  0  0  0  0  0
   -3.8280   -0.5220    0.0002 C   0  0  0  0  0  0  0  0  0  0  0  0
   -3.6721    0.8984    0.0001 C   0  0  0  0  0  0  0  0  0  0  0  0
   -2.8289   -2.4305    0.0003 H   0  0  0  0  0  0  0  0  0  0  0  0
   -2.2840    2.5446   -0.0001 H   0  0  0  0  0  0  0  0  0  0  0  0
   -4.8283   -0.9446    0.0002 H   0  0  0  0  0  0  0  0  0  0  0  0
   -4.5563    1.5289    0.0001 H   0  0  0  0  0  0  0  0  0  0  0  0
    1.9218   -2.9568    0.0001 H   0  0  0  0  0  0  0  0  0  0  0  0
    4.1710   -1.8917   -0.0000 H   0  0  0  0  0  0  0  0  0  0  0  0
    4.4235    0.5856   -0.0002 H   0  0  0  0  0  0  0  0  0  0  0  0
    1.5232    2.6558   -0.0002 H   0  0  0  0  0  0  0  0  0  0  0  0
  1 23  1  0  0  0  0
  1 10  1  0  0  0  0
  3  6  2  0  0  0  0
  3  7  1  0  0  0  0
  4  8  1  0  0  0  0
  4  2  2  0  0  0  0
  5  2  1  0  0  0  0
  5  9  1  0  0  0  0
  6  4  1  0  0  0  0
  7  5  2  0  0  0  0
  8 20  1  0  0  0  0
  9 16  1  0  0  0  0
 10 13  2  0  0  0  0
 10  6  1  0  0  0  0
 11  7  1  0  0  0  0
 11 15  2  0  0  0  0
 12 21  1  0  0  0  0
 12  8  2  0  0  0  0
 13 12  1  0  0  0  0
 14  9  2  0  0  0  0
 14 18  1  0  0  0  0
 15 14  1  0  0  0  0
 17 11  1  0  0  0  0
 19 15  1  0  0  0  0
 22 13  1  0  0  0  0
M  END
