cn r139 neutral
 OpenBabel10202110183D

 25 27  0  0  0  0  0  0  0  0999 V2000
    0.0569   -1.9703   -0.0000 N   0  0  0  0  0  0  0  0  0  0  0  0
    0.6995    0.7930   -0.0000 N   0  0  0  0  0  0  0  0  0  0  0  0
   -0.9002   -1.0300   -0.0000 C   0  0  0  0  0  0  0  0  0  0  0  0
   -0.5694    0.3746    0.0000 C   0  0  0  0  0  0  0  0  0  0  0  0
    1.3301   -1.5539    0.0000 C   0  0  0  0  0  0  0  0  0  0  0  0
    1.6538   -0.1434   -0.0000 C   0  0  0  0  0  0  0  0  0  0  0  0
   -2.2654   -1.4380   -0.0000 C   0  0  0  0  0  0  0  0  0  0  0  0
   -1.6439    1.3371    0.0000 C   0  0  0  0  0  0  0  0  0  0  0  0
    2.3817   -2.5217    0.0000 C   0  0  0  0  0  0  0  0  0  0  0  0
    3.0414    0.2447   -0.0000 C   0  0  0  0  0  0  0  0  0  0  0  0
   -3.2661   -0.4887   -0.0000 C   0  0  0  0  0  0  0  0  0  0  0  0
   -2.9533    0.9088    0.0000 C   0  0  0  0  0  0  0  0  0  0  0  0
    3.6899   -2.1120    0.0000 C   0  0  0  0  0  0  0  0  0  0  0  0
    4.0226   -0.7274    0.0000 C   0  0  0  0  0  0  0  0  0  0  0  0
    4.4919   -2.8429    0.0000 H   0  0  0  0  0  0  0  0  0  0  0  0
    5.0652   -0.4274    0.0000 H   0  0  0  0  0  0  0  0  0  0  0  0
   -1.3503    2.7401    0.0000 C   0  0  0  0  0  0  0  0  0  0  0  0
   -1.1643    3.8879    0.0000 N   0  0  0  0  0  0  0  0  0  0  0  0
    2.1041   -3.5705    0.0000 H   0  0  0  0  0  0  0  0  0  0  0  0
   -2.4861   -2.4996   -0.0000 H   0  0  0  0  0  0  0  0  0  0  0  0
   -4.6441   -0.8910   -0.0000 C   0  0  0  0  0  0  0  0  0  0  0  0
   -5.7633   -1.2075   -0.0000 N   0  0  0  0  0  0  0  0  0  0  0  0
   -3.7606    1.6323    0.0000 H   0  0  0  0  0  0  0  0  0  0  0  0
    3.4002    1.6322   -0.0000 C   0  0  0  0  0  0  0  0  0  0  0  0
    3.7459    2.7426   -0.0000 N   0  0  0  0  0  0  0  0  0  0  0  0
  2  6  2  0  0  0  0
  2  4  1  0  0  0  0
  3  1  1  0  0  0  0
  4  3  1  0  0  0  0
  5  1  2  0  0  0  0
  5  9  1  0  0  0  0
  6  5  1  0  0  0  0
  7 11  1  0  0  0  0
  7  3  2  0  0  0  0
  8  4  2  0  0  0  0
  8 17  1  0  0  0  0
  9 19  1  0  0  0  0
 10  6  1  0  0  0  0
 12 11  2  0  0  0  0
 12  8  1  0  0  0  0
 12 23  1  0  0  0  0
 13  9  2  0  0  0  0
 13 15  1  0  0  0  0
 14 10  2  0  0  0  0
 14 13  1  0  0  0  0
 16 14  1  0  0  0  0
 17 18  3  0  0  0  0
 20  7  1  0  0  0  0
 21 11  1  0  0  0  0
 22 21  3  0  0  0  0
 24 10  1  0  0  0  0
 25 24  3  0  0  0  0
M  END
