nh2 r18 neutral
 OpenBabel10202110183D

 26 28  0  0  0  0  0  0  0  0999 V2000
    0.2028    1.0912   -0.0010 N   0  0  0  0  0  0  0  0  0  0  0  0
    0.1762   -1.7440   -0.0068 N   0  0  0  0  0  0  0  0  0  0  0  0
    2.5532    2.4713   -0.0829 N   0  0  0  0  0  0  0  0  0  0  0  0
    1.3377    0.3798   -0.0091 C   0  0  0  0  0  0  0  0  0  0  0  0
    1.3390   -1.0652   -0.0037 C   0  0  0  0  0  0  0  0  0  0  0  0
   -0.9588    0.4126   -0.0028 C   0  0  0  0  0  0  0  0  0  0  0  0
   -0.9574   -1.0346   -0.0103 C   0  0  0  0  0  0  0  0  0  0  0  0
    2.5966    1.0936   -0.0114 C   0  0  0  0  0  0  0  0  0  0  0  0
    2.5768   -1.7708    0.0138 C   0  0  0  0  0  0  0  0  0  0  0  0
    3.7711    0.3621    0.0141 C   0  0  0  0  0  0  0  0  0  0  0  0
   -2.1940    1.1152    0.0103 C   0  0  0  0  0  0  0  0  0  0  0  0
   -2.2177   -1.7132   -0.0153 C   0  0  0  0  0  0  0  0  0  0  0  0
    3.7524   -1.0588    0.0277 C   0  0  0  0  0  0  0  0  0  0  0  0
   -3.3939    0.4303    0.0045 C   0  0  0  0  0  0  0  0  0  0  0  0
   -3.3881   -1.0084   -0.0115 C   0  0  0  0  0  0  0  0  0  0  0  0
    2.5524   -2.8549    0.0187 H   0  0  0  0  0  0  0  0  0  0  0  0
   -2.1620    2.2009    0.0172 H   0  0  0  0  0  0  0  0  0  0  0  0
   -2.2080   -2.7984   -0.0240 H   0  0  0  0  0  0  0  0  0  0  0  0
    4.7019   -1.5865    0.0453 H   0  0  0  0  0  0  0  0  0  0  0  0
   -4.3401   -1.5334   -0.0267 H   0  0  0  0  0  0  0  0  0  0  0  0
    1.6488    2.8823    0.1080 H   0  0  0  0  0  0  0  0  0  0  0  0
    3.3534    2.9858    0.2520 H   0  0  0  0  0  0  0  0  0  0  0  0
    4.7253    0.8824    0.0121 H   0  0  0  0  0  0  0  0  0  0  0  0
   -4.6190    1.0850   -0.0442 N   0  0  0  0  0  0  0  0  0  0  0  0
   -5.4234    0.5787    0.2972 H   0  0  0  0  0  0  0  0  0  0  0  0
   -4.6236    2.0633    0.2070 H   0  0  0  0  0  0  0  0  0  0  0  0
  2  5  2  0  0  0  0
  3  8  1  0  0  0  0
  3 21  1  0  0  0  0
  3 22  1  0  0  0  0
  4  5  1  0  0  0  0
  4  1  2  0  0  0  0
  5  9  1  0  0  0  0
  6  1  1  0  0  0  0
  6 11  1  0  0  0  0
  7  2  1  0  0  0  0
  7  6  2  0  0  0  0
  8  4  1  0  0  0  0
  8 10  2  0  0  0  0
  9 16  1  0  0  0  0
  9 13  2  0  0  0  0
 10 13  1  0  0  0  0
 11 17  1  0  0  0  0
 12 15  2  0  0  0  0
 12  7  1  0  0  0  0
 13 19  1  0  0  0  0
 14 11  2  0  0  0  0
 15 14  1  0  0  0  0
 18 12  1  0  0  0  0
 20 15  1  0  0  0  0
 23 10  1  0  0  0  0
 24 14  1  0  0  0  0
 24 26  1  0  0  0  0
 24 25  1  0  0  0  0
M  END
