phenazine neutral
 OpenBabel10102120523D
Created by GaussView 6.0.16
 43 46  0  0  0  0  0  0  0  0999 V2000
    0.2523    1.2080   -0.4395 N   0  0  0  0  0  0  0  0  0  0  0  0
   -0.0480   -1.4839    0.5812 N   0  0  0  0  0  0  0  0  0  0  0  0
    1.2774    0.4950   -0.0894 C   0  0  0  0  0  0  0  0  0  0  0  0
    1.1095   -0.9086    0.4759 C   0  0  0  0  0  0  0  0  0  0  0  0
   -1.2481   -0.7603    0.2596 C   0  0  0  0  0  0  0  0  0  0  0  0
   -1.1044    0.6596   -0.2750 C   0  0  0  0  0  0  0  0  0  0  0  0
    2.3611   -1.6411    0.9262 C   0  0  0  0  0  0  0  0  0  0  0  0
    2.6959    1.0609   -0.2328 C   0  0  0  0  0  0  0  0  0  0  0  0
   -2.4606   -1.3301    0.4228 C   0  0  0  0  0  0  0  0  0  0  0  0
   -2.2122    1.3697   -0.5838 C   0  0  0  0  0  0  0  0  0  0  0  0
    3.7612    0.3590    0.2188 C   0  0  0  0  0  0  0  0  0  0  0  0
    3.5939   -1.0480    0.8387 C   0  0  0  0  0  0  0  0  0  0  0  0
   -3.5994    0.7287   -0.4215 C   0  0  0  0  0  0  0  0  0  0  0  0
   -3.7226   -0.5414    0.0470 C   0  0  0  0  0  0  0  0  0  0  0  0
    2.2622   -2.6283    1.3146 H   0  0  0  0  0  0  0  0  0  0  0  0
    2.8593    2.0161   -0.6826 H   0  0  0  0  0  0  0  0  0  0  0  0
   -2.5570   -2.3353    0.8164 H   0  0  0  0  0  0  0  0  0  0  0  0
   -2.1496    2.3698   -0.9361 H   0  0  0  0  0  0  0  0  0  0  0  0
    4.4779   -1.5521    1.2018 H   0  0  0  0  0  0  0  0  0  0  0  0
    5.1605    1.0051    0.1027 C   0  0  0  0  0  0  0  0  0  0  0  0
    6.1868    0.4173    0.6038 O   0  0  0  0  0  0  0  0  0  0  0  0
    5.2556    2.2883   -0.5808 O   0  0  0  0  0  0  0  0  0  0  0  0
    6.0432    2.7418   -0.2729 H   0  0  0  0  0  0  0  0  0  0  0  0
   -5.0965    1.6613   -0.8028 P   0  0  0  0  0  0  0  0  0  0  0  0
   -5.7444    1.1019   -2.4046 C   0  0  0  0  0  0  0  0  0  0  0  0
   -5.8554    0.0404   -2.4133 H   0  0  0  0  0  0  0  0  0  0  0  0
   -6.6912    1.5251   -2.5735 H   0  0  0  0  0  0  0  0  0  0  0  0
   -5.0716    1.3973   -3.1474 H   0  0  0  0  0  0  0  0  0  0  0  0
   -6.3582    1.2862    0.4625 C   0  0  0  0  0  0  0  0  0  0  0  0
   -7.2523    1.8132    0.2505 H   0  0  0  0  0  0  0  0  0  0  0  0
   -6.5845    0.2324    0.4656 H   0  0  0  0  0  0  0  0  0  0  0  0
   -5.9819    1.5765    1.4219 H   0  0  0  0  0  0  0  0  0  0  0  0
   -5.1159   -1.1895    0.2266 C   0  0  0  0  0  0  0  0  0  0  0  0
   -6.2668   -0.4768   -0.1150 C   0  0  0  0  0  0  0  0  0  0  0  0
   -5.2324   -2.5160    0.7498 C   0  0  0  0  0  0  0  0  0  0  0  0
   -7.5319   -1.0356    0.1418 C   0  0  0  0  0  0  0  0  0  0  0  0
   -6.1868    0.5028   -0.5722 H   0  0  0  0  0  0  0  0  0  0  0  0
   -6.5163   -3.0366    1.0226 C   0  0  0  0  0  0  0  0  0  0  0  0
   -4.3498   -3.1270    0.9524 H   0  0  0  0  0  0  0  0  0  0  0  0
   -7.6499   -2.2890    0.7342 C   0  0  0  0  0  0  0  0  0  0  0  0
   -8.4081   -0.5045   -0.1177 H   0  0  0  0  0  0  0  0  0  0  0  0
   -6.6308   -4.0100    1.4561 H   0  0  0  0  0  0  0  0  0  0  0  0
   -8.6201   -2.6763    0.9676 H   0  0  0  0  0  0  0  0  0  0  0  0
  1  6  1  0  0  0  0
  1  3  2  0  0  0  0
  2  5  1  0  0  0  0
  2  4  2  0  0  0  0
  3  4  1  0  0  0  0
  3  8  1  0  0  0  0
  4  7  1  0  0  0  0
  5  9  2  0  0  0  0
  5  6  1  0  0  0  0
  6 10  2  0  0  0  0
  7 12  2  0  0  0  0
  7 15  1  0  0  0  0
  8 16  1  0  0  0  0
  8 11  2  0  0  0  0
  9 14  1  0  0  0  0
  9 17  1  0  0  0  0
 10 13  1  0  0  0  0
 10 18  1  0  0  0  0
 11 12  1  0  0  0  0
 11 20  1  0  0  0  0
 12 19  1  0  0  0  0
 13 14  2  0  0  0  0
 13 24  1  0  0  0  0
 14 33  1  0  0  0  0
 20 21  2  0  0  0  0
 20 22  1  0  0  0  0
 22 23  1  0  0  0  0
 24 25  1  0  0  0  0
 24 29  1  0  0  0  0
 25 26  1  0  0  0  0
 25 27  1  0  0  0  0
 25 28  1  0  0  0  0
 29 30  1  0  0  0  0
 29 31  1  0  0  0  0
 29 32  1  0  0  0  0
 33 34  2  0  0  0  0
 33 35  1  0  0  0  0
 34 36  1  0  0  0  0
 34 37  1  0  0  0  0
 35 38  2  0  0  0  0
 35 39  1  0  0  0  0
 36 40  2  0  0  0  0
 36 41  1  0  0  0  0
 38 40  1  0  0  0  0
 38 42  1  0  0  0  0
 40 43  1  0  0  0  0
M  END
