phenazine neutral
 OpenBabel10102120523D
Created by GaussView 6.0.16
 26 28  0  0  0  0  0  0  0  0999 V2000
    0.0059    1.4388   -0.2630 N   0  0  0  0  0  0  0  0  0  0  0  0
    0.0385   -1.4393    0.2119 N   0  0  0  0  0  0  0  0  0  0  0  0
    1.1157    0.7778   -0.1183 C   0  0  0  0  0  0  0  0  0  0  0  0
    1.1329   -0.7426    0.1325 C   0  0  0  0  0  0  0  0  0  0  0  0
   -1.2573   -0.7740    0.0606 C   0  0  0  0  0  0  0  0  0  0  0  0
   -1.2743    0.7318   -0.1879 C   0  0  0  0  0  0  0  0  0  0  0  0
    2.4956   -1.4313    0.2899 C   0  0  0  0  0  0  0  0  0  0  0  0
    2.4624    1.5104   -0.1955 C   0  0  0  0  0  0  0  0  0  0  0  0
   -2.4173   -1.4686    0.1375 C   0  0  0  0  0  0  0  0  0  0  0  0
   -2.4496    1.3886   -0.3339 C   0  0  0  0  0  0  0  0  0  0  0  0
    3.6273    0.8233   -0.0447 C   0  0  0  0  0  0  0  0  0  0  0  0
    3.6446   -0.7067    0.2078 C   0  0  0  0  0  0  0  0  0  0  0  0
   -3.7754    0.6078   -0.2482 C   0  0  0  0  0  0  0  0  0  0  0  0
   -3.7602   -0.7311   -0.0273 C   0  0  0  0  0  0  0  0  0  0  0  0
    2.4853    2.5661   -0.3685 H   0  0  0  0  0  0  0  0  0  0  0  0
   -2.4576    2.4443   -0.5079 H   0  0  0  0  0  0  0  0  0  0  0  0
    4.5844   -1.2056    0.3203 H   0  0  0  0  0  0  0  0  0  0  0  0
   -4.6801   -1.2743    0.0323 H   0  0  0  0  0  0  0  0  0  0  0  0
   -4.7073    1.1210   -0.3628 H   0  0  0  0  0  0  0  0  0  0  0  0
    4.9633    1.5850   -0.1268 C   0  0  0  0  0  0  0  0  0  0  0  0
    5.9584    2.1510   -0.1878 N   0  0  0  0  0  0  0  0  0  0  0  0
   -2.3961   -2.8794    0.3704 O   0  0  0  0  0  0  0  0  0  0  0  0
   -3.1602   -3.2841   -0.0466 H   0  0  0  0  0  0  0  0  0  0  0  0
    2.5599   -2.8801    0.5305 N   0  0  0  0  0  0  0  0  0  0  0  0
    2.6045   -3.3616   -0.3448 H   0  0  0  0  0  0  0  0  0  0  0  0
    3.3747   -3.0926    1.0698 H   0  0  0  0  0  0  0  0  0  0  0  0
  1  6  1  0  0  0  0
  1  3  2  0  0  0  0
  2  5  1  0  0  0  0
  2  4  2  0  0  0  0
  3  4  1  0  0  0  0
  3  8  1  0  0  0  0
  4  7  1  0  0  0  0
  5  9  2  0  0  0  0
  5  6  1  0  0  0  0
  6 10  2  0  0  0  0
  7 12  2  0  0  0  0
  7 24  1  0  0  0  0
  8 15  1  0  0  0  0
  8 11  2  0  0  0  0
  9 14  1  0  0  0  0
  9 22  1  0  0  0  0
 10 13  1  0  0  0  0
 10 16  1  0  0  0  0
 11 12  1  0  0  0  0
 11 20  1  0  0  0  0
 12 17  1  0  0  0  0
 13 19  1  0  0  0  0
 13 14  2  0  0  0  0
 14 18  1  0  0  0  0
 20 21  3  0  0  0  0
 22 23  1  0  0  0  0
 24 25  1  0  0  0  0
 24 26  1  0  0  0  0
M  END
