phenazine neutral
 OpenBabel10102120523D
Created by GaussView 6.0.16
 30 32  0  0  0  0  0  0  0  0999 V2000
    0.0170    1.4699   -0.0598 N   0  0  0  0  0  0  0  0  0  0  0  0
    0.0038   -1.4447    0.0610 N   0  0  0  0  0  0  0  0  0  0  0  0
    1.1165    0.7780   -0.0185 C   0  0  0  0  0  0  0  0  0  0  0  0
    1.1096   -0.7617    0.0453 C   0  0  0  0  0  0  0  0  0  0  0  0
   -1.2817   -0.7447    0.0172 C   0  0  0  0  0  0  0  0  0  0  0  0
   -1.2748    0.7803   -0.0459 C   0  0  0  0  0  0  0  0  0  0  0  0
    2.4617   -1.4869    0.0909 C   0  0  0  0  0  0  0  0  0  0  0  0
    2.4751    1.4922   -0.0325 C   0  0  0  0  0  0  0  0  0  0  0  0
   -2.4530   -1.4243    0.0320 C   0  0  0  0  0  0  0  0  0  0  0  0
   -2.4400    1.4693   -0.0879 C   0  0  0  0  0  0  0  0  0  0  0  0
    3.6294    0.7727    0.0105 C   0  0  0  0  0  0  0  0  0  0  0  0
    3.6224   -0.7767    0.0747 C   0  0  0  0  0  0  0  0  0  0  0  0
   -3.7784    0.7059   -0.0715 C   0  0  0  0  0  0  0  0  0  0  0  0
   -3.7845   -0.6501   -0.0154 C   0  0  0  0  0  0  0  0  0  0  0  0
    2.5148    2.5606   -0.0764 H   0  0  0  0  0  0  0  0  0  0  0  0
   -2.4539   -2.4933    0.0764 H   0  0  0  0  0  0  0  0  0  0  0  0
   -2.4312    2.5383   -0.1321 H   0  0  0  0  0  0  0  0  0  0  0  0
   -4.7133   -1.1812   -0.0040 H   0  0  0  0  0  0  0  0  0  0  0  0
   -4.7024    1.2445   -0.1045 H   0  0  0  0  0  0  0  0  0  0  0  0
    4.9778    1.5165   -0.0049 C   0  0  0  0  0  0  0  0  0  0  0  0
    5.3572    1.7866    1.2623 F   0  0  0  0  0  0  0  0  0  0  0  0
    4.8467    2.6716   -0.6913 F   0  0  0  0  0  0  0  0  0  0  0  0
    5.9114    0.7434   -0.5991 F   0  0  0  0  0  0  0  0  0  0  0  0
    2.5048   -3.0249    0.1552 C   0  0  0  0  0  0  0  0  0  0  0  0
    1.4332   -3.6844    0.1703 O   0  0  0  0  0  0  0  0  0  0  0  0
    3.7979   -3.7227    0.1990 N   0  0  0  0  0  0  0  0  0  0  0  0
    3.7083   -4.6183   -0.2367 H   0  0  0  0  0  0  0  0  0  0  0  0
    4.4848   -3.1826   -0.2874 H   0  0  0  0  0  0  0  0  0  0  0  0
    5.1731   -1.6490    0.1287 S   0  0  0  0  0  0  0  0  0  0  0  0
    5.5393   -1.8118    1.3759 H   0  0  0  0  0  0  0  0  0  0  0  0
  1  6  1  0  0  0  0
  1  3  2  0  0  0  0
  2  5  1  0  0  0  0
  2  4  2  0  0  0  0
  3  4  1  0  0  0  0
  3  8  1  0  0  0  0
  4  7  1  0  0  0  0
  5  9  2  0  0  0  0
  5  6  1  0  0  0  0
  6 10  2  0  0  0  0
  7 12  2  0  0  0  0
  7 24  1  0  0  0  0
  8 15  1  0  0  0  0
  8 11  2  0  0  0  0
  9 14  1  0  0  0  0
  9 16  1  0  0  0  0
 10 13  1  0  0  0  0
 10 17  1  0  0  0  0
 11 12  1  0  0  0  0
 11 20  1  0  0  0  0
 12 29  1  0  0  0  0
 13 19  1  0  0  0  0
 13 14  2  0  0  0  0
 14 18  1  0  0  0  0
 20 21  1  0  0  0  0
 20 22  1  0  0  0  0
 20 23  1  0  0  0  0
 24 25  2  0  0  0  0
 24 26  1  0  0  0  0
 26 27  1  0  0  0  0
 26 28  1  0  0  0  0
 29 30  1  0  0  0  0
M  END
