phenazine neutral
 OpenBabel10102120523D
Created by GaussView 6.0.16
 31 33  0  0  0  0  0  0  0  0999 V2000
    0.0008    1.4355   -0.1134 N   0  0  0  0  0  0  0  0  0  0  0  0
    0.0395   -1.4781    0.0270 N   0  0  0  0  0  0  0  0  0  0  0  0
    1.1114    0.7604   -0.1315 C   0  0  0  0  0  0  0  0  0  0  0  0
    1.1318   -0.7787   -0.0573 C   0  0  0  0  0  0  0  0  0  0  0  0
   -1.2571   -0.7977    0.0534 C   0  0  0  0  0  0  0  0  0  0  0  0
   -1.2773    0.7267   -0.0201 C   0  0  0  0  0  0  0  0  0  0  0  0
    2.4953   -1.4832   -0.0856 C   0  0  0  0  0  0  0  0  0  0  0  0
    2.4557    1.4948   -0.2292 C   0  0  0  0  0  0  0  0  0  0  0  0
   -2.4149   -1.4946    0.1407 C   0  0  0  0  0  0  0  0  0  0  0  0
   -2.4533    1.3978    0.0013 C   0  0  0  0  0  0  0  0  0  0  0  0
    3.6215    0.7930   -0.2485 C   0  0  0  0  0  0  0  0  0  0  0  0
    3.6421   -0.7558   -0.1739 C   0  0  0  0  0  0  0  0  0  0  0  0
   -3.7767    0.6146    0.1003 C   0  0  0  0  0  0  0  0  0  0  0  0
   -3.7587   -0.7408    0.1657 C   0  0  0  0  0  0  0  0  0  0  0  0
   -2.3968   -2.5632    0.1920 H   0  0  0  0  0  0  0  0  0  0  0  0
    4.5825   -1.2659   -0.1922 H   0  0  0  0  0  0  0  0  0  0  0  0
    4.5481    1.3237   -0.3170 H   0  0  0  0  0  0  0  0  0  0  0  0
   -4.6770   -1.2857    0.2345 H   0  0  0  0  0  0  0  0  0  0  0  0
   -4.7092    1.1391    0.1176 H   0  0  0  0  0  0  0  0  0  0  0  0
    2.4841    2.9627   -0.3021 N   0  0  0  0  0  0  0  0  0  0  0  0
    2.5571    3.5195    1.0564 C   0  0  0  0  0  0  0  0  0  0  0  0
    3.4459    3.1691    1.5381 H   0  0  0  0  0  0  0  0  0  0  0  0
    2.5777    4.5880    1.0032 H   0  0  0  0  0  0  0  0  0  0  0  0
    1.7008    3.2067    1.6165 H   0  0  0  0  0  0  0  0  0  0  0  0
    3.6605    3.3924   -1.0717 C   0  0  0  0  0  0  0  0  0  0  0  0
    3.6811    4.4609   -1.1248 H   0  0  0  0  0  0  0  0  0  0  0  0
    4.5493    3.0421   -0.5900 H   0  0  0  0  0  0  0  0  0  0  0  0
    3.6073    2.9871   -2.0606 H   0  0  0  0  0  0  0  0  0  0  0  0
    2.5758   -3.2394   -0.0036 Cl  0  0  0  0  0  0  0  0  0  0  0  0
   -2.4704    3.1757   -0.0847 S   0  0  0  0  0  0  0  0  0  0  0  0
   -3.5147    3.6340    0.5598 H   0  0  0  0  0  0  0  0  0  0  0  0
  1  6  1  0  0  0  0
  1  3  2  0  0  0  0
  2  5  1  0  0  0  0
  2  4  2  0  0  0  0
  3  4  1  0  0  0  0
  3  8  1  0  0  0  0
  4  7  1  0  0  0  0
  5  9  2  0  0  0  0
  5  6  1  0  0  0  0
  6 10  2  0  0  0  0
  7 12  2  0  0  0  0
  7 29  1  0  0  0  0
  8 11  2  0  0  0  0
  8 20  1  0  0  0  0
  9 14  1  0  0  0  0
  9 15  1  0  0  0  0
 10 13  1  0  0  0  0
 10 30  1  0  0  0  0
 11 12  1  0  0  0  0
 11 17  1  0  0  0  0
 12 16  1  0  0  0  0
 13 19  1  0  0  0  0
 13 14  2  0  0  0  0
 14 18  1  0  0  0  0
 20 21  1  0  0  0  0
 20 25  1  0  0  0  0
 21 22  1  0  0  0  0
 21 23  1  0  0  0  0
 21 24  1  0  0  0  0
 25 26  1  0  0  0  0
 25 27  1  0  0  0  0
 25 28  1  0  0  0  0
 30 31  1  0  0  0  0
M  END
