phenazine neutral
 OpenBabel10102120523D
Created by GaussView 6.0.16
 29 31  0  0  0  0  0  0  0  0999 V2000
    0.0219    1.4380   -0.0698 N   0  0  0  0  0  0  0  0  0  0  0  0
    0.0241   -1.4785   -0.0125 N   0  0  0  0  0  0  0  0  0  0  0  0
    1.1250    0.7506   -0.0734 C   0  0  0  0  0  0  0  0  0  0  0  0
    1.1262   -0.7901   -0.0426 C   0  0  0  0  0  0  0  0  0  0  0  0
   -1.2652   -0.7840   -0.0084 C   0  0  0  0  0  0  0  0  0  0  0  0
   -1.2662    0.7421   -0.0346 C   0  0  0  0  0  0  0  0  0  0  0  0
    2.4821   -1.5096   -0.0483 C   0  0  0  0  0  0  0  0  0  0  0  0
    2.4797    1.4714   -0.1090 C   0  0  0  0  0  0  0  0  0  0  0  0
   -2.4326   -1.4702    0.0173 C   0  0  0  0  0  0  0  0  0  0  0  0
   -2.4345    1.4265   -0.0247 C   0  0  0  0  0  0  0  0  0  0  0  0
    3.6378    0.7567   -0.1122 C   0  0  0  0  0  0  0  0  0  0  0  0
    3.6390   -0.7937   -0.0805 C   0  0  0  0  0  0  0  0  0  0  0  0
   -3.7684    0.6566    0.0207 C   0  0  0  0  0  0  0  0  0  0  0  0
   -3.7673   -0.7002    0.0459 C   0  0  0  0  0  0  0  0  0  0  0  0
    2.5177   -2.5788   -0.0271 H   0  0  0  0  0  0  0  0  0  0  0  0
   -2.4315    2.4962   -0.0474 H   0  0  0  0  0  0  0  0  0  0  0  0
    4.5738   -1.3142   -0.0840 H   0  0  0  0  0  0  0  0  0  0  0  0
   -4.6930   -1.2354    0.0852 H   0  0  0  0  0  0  0  0  0  0  0  0
   -4.6951    1.1915    0.0328 H   0  0  0  0  0  0  0  0  0  0  0  0
    2.5286    3.0103   -0.1412 C   0  0  0  0  0  0  0  0  0  0  0  0
    1.4595    3.6740   -0.1383 O   0  0  0  0  0  0  0  0  0  0  0  0
    3.8243    3.7040   -0.1752 N   0  0  0  0  0  0  0  0  0  0  0  0
    3.7398    4.5906    0.2795 H   0  0  0  0  0  0  0  0  0  0  0  0
    4.5108    3.1512    0.2970 H   0  0  0  0  0  0  0  0  0  0  0  0
    4.8861    1.4535   -0.1456 O   0  0  0  0  0  0  0  0  0  0  0  0
    5.5545    0.9343    0.3074 H   0  0  0  0  0  0  0  0  0  0  0  0
   -2.4253   -2.9388    0.0804 N   0  0  0  0  0  0  0  0  0  0  0  0
   -2.8774   -3.2386    0.9205 H   0  0  0  0  0  0  0  0  0  0  0  0
   -2.9125   -3.3088   -0.7106 H   0  0  0  0  0  0  0  0  0  0  0  0
  1  6  1  0  0  0  0
  1  3  2  0  0  0  0
  2  5  1  0  0  0  0
  2  4  2  0  0  0  0
  3  4  1  0  0  0  0
  3  8  1  0  0  0  0
  4  7  1  0  0  0  0
  5  9  2  0  0  0  0
  5  6  1  0  0  0  0
  6 10  2  0  0  0  0
  7 12  2  0  0  0  0
  7 15  1  0  0  0  0
  8 11  2  0  0  0  0
  8 20  1  0  0  0  0
  9 14  1  0  0  0  0
  9 27  1  0  0  0  0
 10 13  1  0  0  0  0
 10 16  1  0  0  0  0
 11 12  1  0  0  0  0
 11 25  1  0  0  0  0
 12 17  1  0  0  0  0
 13 19  1  0  0  0  0
 13 14  2  0  0  0  0
 14 18  1  0  0  0  0
 20 21  2  0  0  0  0
 20 22  1  0  0  0  0
 22 23  1  0  0  0  0
 22 24  1  0  0  0  0
 25 26  1  0  0  0  0
 27 28  1  0  0  0  0
 27 29  1  0  0  0  0
M  END
