phenazine neutral
 OpenBabel10102120523D
Created by GaussView 6.0.16
 28 30  0  0  0  0  0  0  0  0999 V2000
    0.0113    1.4591   -0.0562 N   0  0  0  0  0  0  0  0  0  0  0  0
    0.0233   -1.4574    0.0056 N   0  0  0  0  0  0  0  0  0  0  0  0
    1.1146    0.7772    0.0294 C   0  0  0  0  0  0  0  0  0  0  0  0
    1.1209   -0.7634    0.0620 C   0  0  0  0  0  0  0  0  0  0  0  0
   -1.2656   -0.7692   -0.0921 C   0  0  0  0  0  0  0  0  0  0  0  0
   -1.2719    0.7567   -0.1244 C   0  0  0  0  0  0  0  0  0  0  0  0
    2.4765   -1.4761    0.1645 C   0  0  0  0  0  0  0  0  0  0  0  0
    2.4642    1.5048    0.1013 C   0  0  0  0  0  0  0  0  0  0  0  0
   -2.4286   -1.4604   -0.1527 C   0  0  0  0  0  0  0  0  0  0  0  0
   -2.4406    1.4350   -0.2141 C   0  0  0  0  0  0  0  0  0  0  0  0
    3.6223    0.7959    0.1910 C   0  0  0  0  0  0  0  0  0  0  0  0
    3.6287   -0.7545    0.2239 C   0  0  0  0  0  0  0  0  0  0  0  0
   -3.7697    0.6584   -0.2837 C   0  0  0  0  0  0  0  0  0  0  0  0
   -3.7641   -0.6984   -0.2550 C   0  0  0  0  0  0  0  0  0  0  0  0
    2.5157   -2.5451    0.1894 H   0  0  0  0  0  0  0  0  0  0  0  0
   -2.4411    2.5048   -0.2366 H   0  0  0  0  0  0  0  0  0  0  0  0
    4.5635   -1.2703    0.2951 H   0  0  0  0  0  0  0  0  0  0  0  0
   -4.6864   -1.2387   -0.3032 H   0  0  0  0  0  0  0  0  0  0  0  0
   -4.6965    1.1885   -0.3547 H   0  0  0  0  0  0  0  0  0  0  0  0
    5.1702    1.6710    0.2727 S   0  0  0  0  0  0  0  0  0  0  0  0
    6.1133    0.9417   -0.2701 H   0  0  0  0  0  0  0  0  0  0  0  0
   -2.4171   -2.9300   -0.1212 N   0  0  0  0  0  0  0  0  0  0  0  0
   -1.3428   -3.5388   -0.0390 O   0  0  0  0  0  0  0  0  0  0  0  0
   -3.4818   -3.5585   -0.1768 O   0  0  0  0  0  0  0  0  0  0  0  0
    2.5078    3.0439    0.0719 C   0  0  0  0  0  0  0  0  0  0  0  0
    1.3800    3.5368    0.6266 F   0  0  0  0  0  0  0  0  0  0  0  0
    3.5791    3.4771    0.7699 F   0  0  0  0  0  0  0  0  0  0  0  0
    2.6026    3.4671   -1.2065 F   0  0  0  0  0  0  0  0  0  0  0  0
  1  6  1  0  0  0  0
  1  3  2  0  0  0  0
  2  5  1  0  0  0  0
  2  4  2  0  0  0  0
  3  4  1  0  0  0  0
  3  8  1  0  0  0  0
  4  7  1  0  0  0  0
  5  9  2  0  0  0  0
  5  6  1  0  0  0  0
  6 10  2  0  0  0  0
  7 12  2  0  0  0  0
  7 15  1  0  0  0  0
  8 11  2  0  0  0  0
  8 25  1  0  0  0  0
  9 14  1  0  0  0  0
  9 22  1  0  0  0  0
 10 13  1  0  0  0  0
 10 16  1  0  0  0  0
 11 12  1  0  0  0  0
 11 20  1  0  0  0  0
 12 17  1  0  0  0  0
 13 19  1  0  0  0  0
 13 14  2  0  0  0  0
 14 18  1  0  0  0  0
 20 21  1  0  0  0  0
 22 23  1  0  0  0  0
 22 24  1  0  0  0  0
 25 26  1  0  0  0  0
 25 27  1  0  0  0  0
 25 28  1  0  0  0  0
M  END
