phenazine neutral
 OpenBabel10102120523D
Created by GaussView 6.0.16
 38 41  0  0  0  0  0  0  0  0999 V2000
   -0.0124    1.4044    0.1808 N   0  0  0  0  0  0  0  0  0  0  0  0
   -0.0296   -1.4993   -0.0988 N   0  0  0  0  0  0  0  0  0  0  0  0
    1.0529    0.7391   -0.1541 C   0  0  0  0  0  0  0  0  0  0  0  0
    1.0438   -0.7948   -0.3018 C   0  0  0  0  0  0  0  0  0  0  0  0
   -1.2751   -0.8299    0.2821 C   0  0  0  0  0  0  0  0  0  0  0  0
   -1.2661    0.6893    0.4284 C   0  0  0  0  0  0  0  0  0  0  0  0
    2.3538   -1.4878   -0.7013 C   0  0  0  0  0  0  0  0  0  0  0  0
    2.3714    1.4801   -0.4156 C   0  0  0  0  0  0  0  0  0  0  0  0
   -2.4120   -1.5324    0.5014 C   0  0  0  0  0  0  0  0  0  0  0  0
   -2.3949    1.3503    0.7789 C   0  0  0  0  0  0  0  0  0  0  0  0
    3.4897    0.7885   -0.7664 C   0  0  0  0  0  0  0  0  0  0  0  0
    3.4805   -0.7551   -0.9150 C   0  0  0  0  0  0  0  0  0  0  0  0
   -3.6940    0.5607    1.0307 C   0  0  0  0  0  0  0  0  0  0  0  0
   -3.7020   -0.7901    0.9007 C   0  0  0  0  0  0  0  0  0  0  0  0
    2.3813   -2.5517   -0.8123 H   0  0  0  0  0  0  0  0  0  0  0  0
   -2.4145   -2.5973    0.3979 H   0  0  0  0  0  0  0  0  0  0  0  0
   -2.3848    2.4155    0.8805 H   0  0  0  0  0  0  0  0  0  0  0  0
    4.3836   -1.2572   -1.1928 H   0  0  0  0  0  0  0  0  0  0  0  0
   -4.5892    1.0772    1.3079 H   0  0  0  0  0  0  0  0  0  0  0  0
    2.4291    3.0131   -0.2803 C   0  0  0  0  0  0  0  0  0  0  0  0
    3.6313    3.6928   -0.5184 C   0  0  0  0  0  0  0  0  0  0  0  0
    1.2794    3.7284    0.0808 C   0  0  0  0  0  0  0  0  0  0  0  0
    3.6838    5.0877   -0.3953 C   0  0  0  0  0  0  0  0  0  0  0  0
    4.5091    3.1466   -0.7941 H   0  0  0  0  0  0  0  0  0  0  0  0
    1.3319    5.1234    0.2039 C   0  0  0  0  0  0  0  0  0  0  0  0
    0.3615    3.2094    0.2625 H   0  0  0  0  0  0  0  0  0  0  0  0
    2.5341    5.8031   -0.0342 C   0  0  0  0  0  0  0  0  0  0  0  0
    4.6017    5.6067   -0.5771 H   0  0  0  0  0  0  0  0  0  0  0  0
    0.4540    5.6695    0.4796 H   0  0  0  0  0  0  0  0  0  0  0  0
    2.5741    6.8682    0.0598 H   0  0  0  0  0  0  0  0  0  0  0  0
    4.7048    1.5038   -1.0043 O   0  0  0  0  0  0  0  0  0  0  0  0
    5.8200    0.6736   -0.6694 C   0  0  0  0  0  0  0  0  0  0  0  0
    5.8016   -0.2092   -1.2737 H   0  0  0  0  0  0  0  0  0  0  0  0
    6.7293    1.2088   -0.8473 H   0  0  0  0  0  0  0  0  0  0  0  0
    5.7635    0.4000    0.3635 H   0  0  0  0  0  0  0  0  0  0  0  0
   -4.9995   -1.5807    1.1520 C   0  0  0  0  0  0  0  0  0  0  0  0
   -5.0064   -2.8333    1.0313 O   0  0  0  0  0  0  0  0  0  0  0  0
   -5.8951   -1.0650    1.4292 H   0  0  0  0  0  0  0  0  0  0  0  0
  1  6  1  0  0  0  0
  1  3  2  0  0  0  0
  2  5  1  0  0  0  0
  2  4  2  0  0  0  0
  3  4  1  0  0  0  0
  3  8  1  0  0  0  0
  4  7  1  0  0  0  0
  5  9  2  0  0  0  0
  5  6  1  0  0  0  0
  6 10  2  0  0  0  0
  7 12  2  0  0  0  0
  7 15  1  0  0  0  0
  8 11  2  0  0  0  0
  8 20  1  0  0  0  0
  9 14  1  0  0  0  0
  9 16  1  0  0  0  0
 10 13  1  0  0  0  0
 10 17  1  0  0  0  0
 11 12  1  0  0  0  0
 11 31  1  0  0  0  0
 12 18  1  0  0  0  0
 13 19  1  0  0  0  0
 13 14  2  0  0  0  0
 14 36  1  0  0  0  0
 20 21  2  0  0  0  0
 20 22  1  0  0  0  0
 21 23  1  0  0  0  0
 21 24  1  0  0  0  0
 22 25  2  0  0  0  0
 22 26  1  0  0  0  0
 23 27  2  0  0  0  0
 23 28  1  0  0  0  0
 25 27  1  0  0  0  0
 25 29  1  0  0  0  0
 27 30  1  0  0  0  0
 31 32  1  0  0  0  0
 32 33  1  0  0  0  0
 32 34  1  0  0  0  0
 32 35  1  0  0  0  0
 36 37  2  0  0  0  0
 36 38  1  0  0  0  0
M  END
