phenazine neutral
 OpenBabel10102120523D
Created by GaussView 6.0.16
 32 34  0  0  0  0  0  0  0  0999 V2000
    0.0916    1.4338    0.0021 N   0  0  0  0  0  0  0  0  0  0  0  0
    0.1081   -1.4776   -0.1668 N   0  0  0  0  0  0  0  0  0  0  0  0
    1.1656    0.7384    0.2326 C   0  0  0  0  0  0  0  0  0  0  0  0
    1.1758   -0.7996    0.1333 C   0  0  0  0  0  0  0  0  0  0  0  0
   -1.1470   -0.7730   -0.4354 C   0  0  0  0  0  0  0  0  0  0  0  0
   -1.1551    0.7506   -0.3490 C   0  0  0  0  0  0  0  0  0  0  0  0
    2.4981   -1.5292    0.3989 C   0  0  0  0  0  0  0  0  0  0  0  0
    2.4704    1.4522    0.6182 C   0  0  0  0  0  0  0  0  0  0  0  0
   -2.2775   -1.4472   -0.7538 C   0  0  0  0  0  0  0  0  0  0  0  0
   -2.2925    1.4443   -0.5924 C   0  0  0  0  0  0  0  0  0  0  0  0
    3.6094    0.7252    0.7919 C   0  0  0  0  0  0  0  0  0  0  0  0
    3.6211   -0.8225    0.6945 C   0  0  0  0  0  0  0  0  0  0  0  0
   -3.5843    0.6873   -0.9565 C   0  0  0  0  0  0  0  0  0  0  0  0
   -3.5774   -0.6677   -1.0317 C   0  0  0  0  0  0  0  0  0  0  0  0
    2.5375   -2.5973    0.3491 H   0  0  0  0  0  0  0  0  0  0  0  0
   -2.2681   -2.5155   -0.8123 H   0  0  0  0  0  0  0  0  0  0  0  0
    4.5243    1.2380    1.0037 H   0  0  0  0  0  0  0  0  0  0  0  0
   -4.4740   -1.1945   -1.2838 H   0  0  0  0  0  0  0  0  0  0  0  0
   -4.4862    1.2296   -1.1498 H   0  0  0  0  0  0  0  0  0  0  0  0
    2.5309    2.9210    0.6167 N   0  0  0  0  0  0  0  0  0  0  0  0
    2.3219    3.5500    1.6618 O   0  0  0  0  0  0  0  0  0  0  0  0
    2.7908    3.5285   -0.4297 O   0  0  0  0  0  0  0  0  0  0  0  0
    4.9404   -1.5788    0.9373 C   0  0  0  0  0  0  0  0  0  0  0  0
    5.4636   -1.6899    0.0106 H   0  0  0  0  0  0  0  0  0  0  0  0
    5.5464   -1.0271    1.6252 H   0  0  0  0  0  0  0  0  0  0  0  0
    4.7278   -2.5451    1.3449 H   0  0  0  0  0  0  0  0  0  0  0  0
   -2.2948    2.9818   -0.5055 C   0  0  0  0  0  0  0  0  0  0  0  0
   -3.3534    3.6232   -0.7321 O   0  0  0  0  0  0  0  0  0  0  0  0
   -1.0015    3.7344   -0.1411 C   0  0  0  0  0  0  0  0  0  0  0  0
   -0.3984    3.1202    0.4944 H   0  0  0  0  0  0  0  0  0  0  0  0
   -0.4590    3.9643   -1.0343 H   0  0  0  0  0  0  0  0  0  0  0  0
   -1.2486    4.6416    0.3696 H   0  0  0  0  0  0  0  0  0  0  0  0
  1  6  1  0  0  0  0
  1  3  2  0  0  0  0
  2  5  1  0  0  0  0
  2  4  2  0  0  0  0
  3  4  1  0  0  0  0
  3  8  1  0  0  0  0
  4  7  1  0  0  0  0
  5  9  2  0  0  0  0
  5  6  1  0  0  0  0
  6 10  2  0  0  0  0
  7 12  2  0  0  0  0
  7 15  1  0  0  0  0
  8 11  2  0  0  0  0
  8 20  1  0  0  0  0
  9 14  1  0  0  0  0
  9 16  1  0  0  0  0
 10 13  1  0  0  0  0
 10 27  1  0  0  0  0
 11 12  1  0  0  0  0
 11 17  1  0  0  0  0
 12 23  1  0  0  0  0
 13 19  1  0  0  0  0
 13 14  2  0  0  0  0
 14 18  1  0  0  0  0
 20 21  1  0  0  0  0
 20 22  1  0  0  0  0
 23 24  1  0  0  0  0
 23 25  1  0  0  0  0
 23 26  1  0  0  0  0
 27 28  2  0  0  0  0
 27 29  1  0  0  0  0
 29 30  1  0  0  0  0
 29 31  1  0  0  0  0
 29 32  1  0  0  0  0
M  END
