phenazine neutral
 OpenBabel10102120523D
Created by GaussView 6.0.16
 27 29  0  0  0  0  0  0  0  0999 V2000
    0.0275    1.4584   -0.0299 N   0  0  0  0  0  0  0  0  0  0  0  0
    0.0289   -1.4573    0.0628 N   0  0  0  0  0  0  0  0  0  0  0  0
    1.1305    0.7714   -0.0012 C   0  0  0  0  0  0  0  0  0  0  0  0
    1.1313   -0.7688    0.0478 C   0  0  0  0  0  0  0  0  0  0  0  0
   -1.2602   -0.7631    0.0327 C   0  0  0  0  0  0  0  0  0  0  0  0
   -1.2609    0.7625   -0.0158 C   0  0  0  0  0  0  0  0  0  0  0  0
    2.4870   -1.4879    0.0791 C   0  0  0  0  0  0  0  0  0  0  0  0
    2.4856    1.4923   -0.0157 C   0  0  0  0  0  0  0  0  0  0  0  0
   -2.4282   -1.4484    0.0472 C   0  0  0  0  0  0  0  0  0  0  0  0
   -2.4295    1.4462   -0.0449 C   0  0  0  0  0  0  0  0  0  0  0  0
    3.6435    0.7779    0.0143 C   0  0  0  0  0  0  0  0  0  0  0  0
    3.6443   -0.7720    0.0636 C   0  0  0  0  0  0  0  0  0  0  0  0
   -3.7642    0.6762   -0.0287 C   0  0  0  0  0  0  0  0  0  0  0  0
   -3.7636   -0.6802    0.0144 C   0  0  0  0  0  0  0  0  0  0  0  0
    2.5200    2.5612   -0.0494 H   0  0  0  0  0  0  0  0  0  0  0  0
   -2.4237   -2.5178    0.0812 H   0  0  0  0  0  0  0  0  0  0  0  0
   -2.4261    2.5157   -0.0789 H   0  0  0  0  0  0  0  0  0  0  0  0
   -4.6898   -1.2159    0.0257 H   0  0  0  0  0  0  0  0  0  0  0  0
   -4.6909    1.2107   -0.0515 H   0  0  0  0  0  0  0  0  0  0  0  0
    4.9882    1.5284   -0.0012 C   0  0  0  0  0  0  0  0  0  0  0  0
    6.1519    0.8344    0.0282 C   0  0  0  0  0  0  0  0  0  0  0  0
    5.0038    2.5977   -0.0351 H   0  0  0  0  0  0  0  0  0  0  0  0
    7.0862    1.3558    0.0174 H   0  0  0  0  0  0  0  0  0  0  0  0
    6.1363   -0.2350    0.0621 H   0  0  0  0  0  0  0  0  0  0  0  0
    2.5458   -3.2660    0.1361 S   0  0  0  0  0  0  0  0  0  0  0  0
    3.6331   -3.6863   -0.4616 H   0  0  0  0  0  0  0  0  0  0  0  0
    5.1819   -1.6276    0.1004 Cl  0  0  0  0  0  0  0  0  0  0  0  0
  1  6  1  0  0  0  0
  1  3  2  0  0  0  0
  2  5  1  0  0  0  0
  2  4  2  0  0  0  0
  3  4  1  0  0  0  0
  3  8  1  0  0  0  0
  4  7  1  0  0  0  0
  5  9  2  0  0  0  0
  5  6  1  0  0  0  0
  6 10  2  0  0  0  0
  7 12  2  0  0  0  0
  7 25  1  0  0  0  0
  8 15  1  0  0  0  0
  8 11  2  0  0  0  0
  9 14  1  0  0  0  0
  9 16  1  0  0  0  0
 10 13  1  0  0  0  0
 10 17  1  0  0  0  0
 11 12  1  0  0  0  0
 11 20  1  0  0  0  0
 12 27  1  0  0  0  0
 13 19  1  0  0  0  0
 13 14  2  0  0  0  0
 14 18  1  0  0  0  0
 20 21  2  0  0  0  0
 20 22  1  0  0  0  0
 21 23  1  0  0  0  0
 21 24  1  0  0  0  0
 25 26  1  0  0  0  0
M  END
