phenazine neutral
 OpenBabel10102120523D
Created by GaussView 6.0.16
 32 34  0  0  0  0  0  0  0  0999 V2000
    0.0068    1.4503   -0.0116 N   0  0  0  0  0  0  0  0  0  0  0  0
    0.0169   -1.4668   -0.0222 N   0  0  0  0  0  0  0  0  0  0  0  0
    1.1119    0.7660   -0.0131 C   0  0  0  0  0  0  0  0  0  0  0  0
    1.1173   -0.7750   -0.0187 C   0  0  0  0  0  0  0  0  0  0  0  0
   -1.2743   -0.7759   -0.0209 C   0  0  0  0  0  0  0  0  0  0  0  0
   -1.2796    0.7504   -0.0153 C   0  0  0  0  0  0  0  0  0  0  0  0
    2.4752   -1.4906   -0.0201 C   0  0  0  0  0  0  0  0  0  0  0  0
    2.4649    1.4910   -0.0093 C   0  0  0  0  0  0  0  0  0  0  0  0
   -2.4402   -1.4648   -0.0244 C   0  0  0  0  0  0  0  0  0  0  0  0
   -2.4502    1.4312   -0.0139 C   0  0  0  0  0  0  0  0  0  0  0  0
    3.6249    0.7796   -0.0108 C   0  0  0  0  0  0  0  0  0  0  0  0
    3.6303   -0.7711   -0.0165 C   0  0  0  0  0  0  0  0  0  0  0  0
   -3.7826    0.6572   -0.0179 C   0  0  0  0  0  0  0  0  0  0  0  0
   -3.7779   -0.6999   -0.0228 C   0  0  0  0  0  0  0  0  0  0  0  0
    2.5137   -2.5599   -0.0240 H   0  0  0  0  0  0  0  0  0  0  0  0
   -2.4325   -2.5348   -0.0283 H   0  0  0  0  0  0  0  0  0  0  0  0
   -2.4500    2.5012   -0.0100 H   0  0  0  0  0  0  0  0  0  0  0  0
   -4.7025   -1.2385   -0.0256 H   0  0  0  0  0  0  0  0  0  0  0  0
   -4.7109    1.1893   -0.0168 H   0  0  0  0  0  0  0  0  0  0  0  0
    4.9674    1.5341   -0.0069 C   0  0  0  0  0  0  0  0  0  0  0  0
    6.1331    0.8430   -0.0083 C   0  0  0  0  0  0  0  0  0  0  0  0
    4.9797    2.6041   -0.0030 H   0  0  0  0  0  0  0  0  0  0  0  0
    7.0659    1.3673   -0.0056 H   0  0  0  0  0  0  0  0  0  0  0  0
    6.1208   -0.2269   -0.0123 H   0  0  0  0  0  0  0  0  0  0  0  0
    4.9780   -1.5164   -0.0180 C   0  0  0  0  0  0  0  0  0  0  0  0
    4.8378   -2.7011    0.6139 F   0  0  0  0  0  0  0  0  0  0  0  0
    5.9046   -0.7719    0.6219 F   0  0  0  0  0  0  0  0  0  0  0  0
    5.3729   -1.7295   -1.2912 F   0  0  0  0  0  0  0  0  0  0  0  0
    2.5097    3.0304   -0.0036 C   0  0  0  0  0  0  0  0  0  0  0  0
    1.4386    3.6910   -0.0022 O   0  0  0  0  0  0  0  0  0  0  0  0
    3.7684    3.7090   -0.0000 O   0  0  0  0  0  0  0  0  0  0  0  0
    3.6776    4.5492    0.4555 H   0  0  0  0  0  0  0  0  0  0  0  0
  1  6  1  0  0  0  0
  1  3  2  0  0  0  0
  2  5  1  0  0  0  0
  2  4  2  0  0  0  0
  3  4  1  0  0  0  0
  3  8  1  0  0  0  0
  4  7  1  0  0  0  0
  5  9  2  0  0  0  0
  5  6  1  0  0  0  0
  6 10  2  0  0  0  0
  7 12  2  0  0  0  0
  7 15  1  0  0  0  0
  8 11  2  0  0  0  0
  8 29  1  0  0  0  0
  9 14  1  0  0  0  0
  9 16  1  0  0  0  0
 10 13  1  0  0  0  0
 10 17  1  0  0  0  0
 11 12  1  0  0  0  0
 11 20  1  0  0  0  0
 12 25  1  0  0  0  0
 13 19  1  0  0  0  0
 13 14  2  0  0  0  0
 14 18  1  0  0  0  0
 20 21  2  0  0  0  0
 20 22  1  0  0  0  0
 21 23  1  0  0  0  0
 21 24  1  0  0  0  0
 25 26  1  0  0  0  0
 25 27  1  0  0  0  0
 25 28  1  0  0  0  0
 29 30  2  0  0  0  0
 29 31  1  0  0  0  0
 31 32  1  0  0  0  0
M  END
