phenazine neutral
 OpenBabel10102120523D
Created by GaussView 6.0.16
 40 43  0  0  0  0  0  0  0  0999 V2000
    0.0453    1.4143   -0.2025 N   0  0  0  0  0  0  0  0  0  0  0  0
    0.1066   -1.3756    0.6476 N   0  0  0  0  0  0  0  0  0  0  0  0
    1.1580    0.7499   -0.1016 C   0  0  0  0  0  0  0  0  0  0  0  0
    1.1904   -0.7238    0.3474 C   0  0  0  0  0  0  0  0  0  0  0  0
   -1.1915   -0.7032    0.5615 C   0  0  0  0  0  0  0  0  0  0  0  0
   -1.2235    0.7565    0.1167 C   0  0  0  0  0  0  0  0  0  0  0  0
    2.5553   -1.4204    0.4348 C   0  0  0  0  0  0  0  0  0  0  0  0
    2.4928    1.4311   -0.4341 C   0  0  0  0  0  0  0  0  0  0  0  0
   -2.3406   -1.3516    0.8667 C   0  0  0  0  0  0  0  0  0  0  0  0
   -2.4014    1.4181    0.0227 C   0  0  0  0  0  0  0  0  0  0  0  0
    3.6606    0.7403   -0.3302 C   0  0  0  0  0  0  0  0  0  0  0  0
    3.6932   -0.7428    0.1217 C   0  0  0  0  0  0  0  0  0  0  0  0
   -3.7148    0.6898    0.3676 C   0  0  0  0  0  0  0  0  0  0  0  0
   -3.6864   -0.6081    0.7631 C   0  0  0  0  0  0  0  0  0  0  0  0
    2.6125   -2.4434    0.7434 H   0  0  0  0  0  0  0  0  0  0  0  0
   -2.3142   -2.3749    1.1781 H   0  0  0  0  0  0  0  0  0  0  0  0
   -2.4199    2.4414   -0.2895 H   0  0  0  0  0  0  0  0  0  0  0  0
    4.5804    1.2333   -0.5665 H   0  0  0  0  0  0  0  0  0  0  0  0
   -4.5978   -1.1148    1.0029 H   0  0  0  0  0  0  0  0  0  0  0  0
    2.5136    3.1704   -0.9695 P   0  0  0  0  0  0  0  0  0  0  0  0
    2.6717    4.2515    0.4861 C   0  0  0  0  0  0  0  0  0  0  0  0
    3.5823    4.0258    1.0007 H   0  0  0  0  0  0  0  0  0  0  0  0
    2.6839    5.2740    0.1713 H   0  0  0  0  0  0  0  0  0  0  0  0
    1.8419    4.0901    1.1420 H   0  0  0  0  0  0  0  0  0  0  0  0
    3.9251    3.4449   -2.0852 C   0  0  0  0  0  0  0  0  0  0  0  0
    3.9373    4.4675   -2.4000 H   0  0  0  0  0  0  0  0  0  0  0  0
    4.8356    3.2192   -1.5705 H   0  0  0  0  0  0  0  0  0  0  0  0
    3.8321    2.8093   -2.9410 H   0  0  0  0  0  0  0  0  0  0  0  0
    5.2421   -1.5712    0.2325 Cl  0  0  0  0  0  0  0  0  0  0  0  0
   -5.0589    1.4343    0.2636 C   0  0  0  0  0  0  0  0  0  0  0  0
   -6.2531    0.7715    0.5774 C   0  0  0  0  0  0  0  0  0  0  0  0
   -5.0878    2.7745   -0.1448 C   0  0  0  0  0  0  0  0  0  0  0  0
   -7.4763    1.4489    0.4828 C   0  0  0  0  0  0  0  0  0  0  0  0
   -6.2311   -0.2518    0.8893 H   0  0  0  0  0  0  0  0  0  0  0  0
   -6.3109    3.4520   -0.2395 C   0  0  0  0  0  0  0  0  0  0  0  0
   -4.1760    3.2806   -0.3844 H   0  0  0  0  0  0  0  0  0  0  0  0
   -7.5052    2.7892    0.0743 C   0  0  0  0  0  0  0  0  0  0  0  0
   -8.3881    0.9429    0.7224 H   0  0  0  0  0  0  0  0  0  0  0  0
   -6.3330    4.4753   -0.5513 H   0  0  0  0  0  0  0  0  0  0  0  0
   -8.4390    3.3064    0.0021 H   0  0  0  0  0  0  0  0  0  0  0  0
  1  6  1  0  0  0  0
  1  3  2  0  0  0  0
  2  5  1  0  0  0  0
  2  4  2  0  0  0  0
  3  4  1  0  0  0  0
  3  8  1  0  0  0  0
  4  7  1  0  0  0  0
  5  9  2  0  0  0  0
  5  6  1  0  0  0  0
  6 10  2  0  0  0  0
  7 12  2  0  0  0  0
  7 15  1  0  0  0  0
  8 11  2  0  0  0  0
  8 20  1  0  0  0  0
  9 14  1  0  0  0  0
  9 16  1  0  0  0  0
 10 13  1  0  0  0  0
 10 17  1  0  0  0  0
 11 12  1  0  0  0  0
 11 18  1  0  0  0  0
 12 29  1  0  0  0  0
 13 14  2  0  0  0  0
 13 30  1  0  0  0  0
 14 19  1  0  0  0  0
 20 21  1  0  0  0  0
 20 25  1  0  0  0  0
 21 22  1  0  0  0  0
 21 23  1  0  0  0  0
 21 24  1  0  0  0  0
 25 26  1  0  0  0  0
 25 27  1  0  0  0  0
 25 28  1  0  0  0  0
 30 31  2  0  0  0  0
 30 32  1  0  0  0  0
 31 33  1  0  0  0  0
 31 34  1  0  0  0  0
 32 35  2  0  0  0  0
 32 36  1  0  0  0  0
 33 37  2  0  0  0  0
 33 38  1  0  0  0  0
 35 37  1  0  0  0  0
 35 39  1  0  0  0  0
 37 40  1  0  0  0  0
M  END
