phenazine neutral
 OpenBabel10062113443D
Created by GaussView 6.0.16
 36 38  0  0  0  0  0  0  0  0999 V2000
    0.0568    1.4435   -0.2396 N   0  0  0  0  0  0  0  0  0  0  0  0
    0.0665   -1.4436    0.1777 N   0  0  0  0  0  0  0  0  0  0  0  0
    1.1614    0.7619   -0.1713 C   0  0  0  0  0  0  0  0  0  0  0  0
    1.1666   -0.7633    0.0491 C   0  0  0  0  0  0  0  0  0  0  0  0
   -1.2241   -0.7546    0.1134 C   0  0  0  0  0  0  0  0  0  0  0  0
   -1.2292    0.7560   -0.1049 C   0  0  0  0  0  0  0  0  0  0  0  0
    2.5239   -1.4770    0.1151 C   0  0  0  0  0  0  0  0  0  0  0  0
    2.5140    1.4740   -0.3114 C   0  0  0  0  0  0  0  0  0  0  0  0
   -2.3897   -1.4317    0.2433 C   0  0  0  0  0  0  0  0  0  0  0  0
   -2.3993    1.4345   -0.1710 C   0  0  0  0  0  0  0  0  0  0  0  0
    3.6735    0.7652   -0.2407 C   0  0  0  0  0  0  0  0  0  0  0  0
    3.6787   -0.7695   -0.0189 C   0  0  0  0  0  0  0  0  0  0  0  0
   -3.7313    0.6738   -0.0244 C   0  0  0  0  0  0  0  0  0  0  0  0
   -3.7268   -0.6694    0.1698 C   0  0  0  0  0  0  0  0  0  0  0  0
   -2.3989    2.4935   -0.3242 H   0  0  0  0  0  0  0  0  0  0  0  0
   -4.6592    1.2041   -0.0757 H   0  0  0  0  0  0  0  0  0  0  0  0
    4.6146   -1.2858    0.0301 H   0  0  0  0  0  0  0  0  0  0  0  0
   -4.6511   -1.1987    0.2717 H   0  0  0  0  0  0  0  0  0  0  0  0
   -2.3822   -2.4907    0.3963 H   0  0  0  0  0  0  0  0  0  0  0  0
    4.6060    1.2804   -0.3408 H   0  0  0  0  0  0  0  0  0  0  0  0
    2.5569    2.9281   -0.5229 N   0  0  0  0  0  0  0  0  0  0  0  0
    2.6088    3.6111    0.7777 C   0  0  0  0  0  0  0  0  0  0  0  0
    3.4850    3.3018    1.3082 H   0  0  0  0  0  0  0  0  0  0  0  0
    2.6401    4.6695    0.6238 H   0  0  0  0  0  0  0  0  0  0  0  0
    1.7391    3.3591    1.3478 H   0  0  0  0  0  0  0  0  0  0  0  0
    3.7517    3.2742   -1.3062 C   0  0  0  0  0  0  0  0  0  0  0  0
    3.7830    4.3326   -1.4602 H   0  0  0  0  0  0  0  0  0  0  0  0
    4.6279    2.9650   -0.7757 H   0  0  0  0  0  0  0  0  0  0  0  0
    3.7139    2.7771   -2.2530 H   0  0  0  0  0  0  0  0  0  0  0  0
    2.5791   -3.0003    0.3339 C   0  0  0  0  0  0  0  0  0  0  0  0
    1.5130   -3.6572    0.4582 O   0  0  0  0  0  0  0  0  0  0  0  0
    3.8419   -3.6684    0.3959 O   0  0  0  0  0  0  0  0  0  0  0  0
    3.6977   -5.0063   -0.0880 C   0  0  0  0  0  0  0  0  0  0  0  0
    3.3553   -4.9840   -1.1015 H   0  0  0  0  0  0  0  0  0  0  0  0
    4.6426   -5.5062   -0.0416 H   0  0  0  0  0  0  0  0  0  0  0  0
    2.9871   -5.5298    0.5170 H   0  0  0  0  0  0  0  0  0  0  0  0
  1  6  1  0  0  0  0
  1  3  2  0  0  0  0
  2  5  1  0  0  0  0
  2  4  2  0  0  0  0
  3  4  1  0  0  0  0
  3  8  1  0  0  0  0
  4  7  1  0  0  0  0
  5  9  2  0  0  0  0
  5  6  1  0  0  0  0
  6 10  2  0  0  0  0
  7 12  2  0  0  0  0
  7 30  1  0  0  0  0
  8 11  2  0  0  0  0
  8 21  1  0  0  0  0
  9 14  1  0  0  0  0
  9 19  1  0  0  0  0
 10 13  1  0  0  0  0
 10 15  1  0  0  0  0
 11 12  1  0  0  0  0
 11 20  1  0  0  0  0
 12 17  1  0  0  0  0
 13 16  1  0  0  0  0
 13 14  2  0  0  0  0
 14 18  1  0  0  0  0
 21 22  1  0  0  0  0
 21 26  1  0  0  0  0
 22 23  1  0  0  0  0
 22 24  1  0  0  0  0
 22 25  1  0  0  0  0
 26 27  1  0  0  0  0
 26 28  1  0  0  0  0
 26 29  1  0  0  0  0
 30 31  2  0  0  0  0
 30 32  1  0  0  0  0
 32 33  1  0  0  0  0
 33 34  1  0  0  0  0
 33 35  1  0  0  0  0
 33 36  1  0  0  0  0
M  END
