phenazine neutral
 OpenBabel10062113443D
Created by GaussView 5.0.9
 24 26  0  0  0  0  0  0  0  0999 V2000
    0.0413    1.4556    0.0240 N   0  0  0  0  0  0  0  0  0  0  0  0
    0.0440   -1.4615    0.0052 N   0  0  0  0  0  0  0  0  0  0  0  0
    1.1446    0.7686    0.0078 C   0  0  0  0  0  0  0  0  0  0  0  0
    1.1461   -0.7723   -0.0021 C   0  0  0  0  0  0  0  0  0  0  0  0
   -1.2453   -0.7674    0.0234 C   0  0  0  0  0  0  0  0  0  0  0  0
   -1.2467    0.7589    0.0332 C   0  0  0  0  0  0  0  0  0  0  0  0
    2.5021   -1.4913   -0.0212 C   0  0  0  0  0  0  0  0  0  0  0  0
    2.4993    1.4903   -0.0020 C   0  0  0  0  0  0  0  0  0  0  0  0
   -2.4129   -1.4534    0.0314 C   0  0  0  0  0  0  0  0  0  0  0  0
   -2.4156    1.4426    0.0500 C   0  0  0  0  0  0  0  0  0  0  0  0
    3.6575    0.7760   -0.0189 C   0  0  0  0  0  0  0  0  0  0  0  0
    3.6590   -0.7747   -0.0289 C   0  0  0  0  0  0  0  0  0  0  0  0
   -3.7499    0.6718    0.0593 C   0  0  0  0  0  0  0  0  0  0  0  0
   -3.7486   -0.6853    0.0505 C   0  0  0  0  0  0  0  0  0  0  0  0
    2.5380   -2.5607   -0.0284 H   0  0  0  0  0  0  0  0  0  0  0  0
   -2.4079   -2.5234    0.0244 H   0  0  0  0  0  0  0  0  0  0  0  0
    4.5940   -1.2948   -0.0421 H   0  0  0  0  0  0  0  0  0  0  0  0
    4.5916    1.2980   -0.0254 H   0  0  0  0  0  0  0  0  0  0  0  0
   -4.6745   -1.2216    0.0569 H   0  0  0  0  0  0  0  0  0  0  0  0
   -4.6768    1.2062    0.0726 H   0  0  0  0  0  0  0  0  0  0  0  0
    2.5550    3.2494    0.0088 Cl  0  0  0  0  0  0  0  0  0  0  0  0
   -2.4116    2.9125    0.0594 N   0  0  0  0  0  0  0  0  0  0  0  0
   -2.4207    3.2519   -0.8812 H   0  0  0  0  0  0  0  0  0  0  0  0
   -3.2221    3.2450    0.5416 H   0  0  0  0  0  0  0  0  0  0  0  0
  1  6  1  0  0  0  0
  1  3  2  0  0  0  0
  2  5  1  0  0  0  0
  2  4  2  0  0  0  0
  3  4  1  0  0  0  0
  3  8  1  0  0  0  0
  4  7  1  0  0  0  0
  5  9  2  0  0  0  0
  5  6  1  0  0  0  0
  6 10  2  0  0  0  0
  7 12  2  0  0  0  0
  7 15  1  0  0  0  0
  8 11  2  0  0  0  0
  8 21  1  0  0  0  0
  9 14  1  0  0  0  0
  9 16  1  0  0  0  0
 10 13  1  0  0  0  0
 10 22  1  0  0  0  0
 11 12  1  0  0  0  0
 11 18  1  0  0  0  0
 12 17  1  0  0  0  0
 13 20  1  0  0  0  0
 13 14  2  0  0  0  0
 14 19  1  0  0  0  0
 22 23  1  0  0  0  0
 22 24  1  0  0  0  0
M  END
