phenazine neutral
 OpenBabel10062113443D
Created by GaussView 5.0.9
 36 39  0  0  0  0  0  0  0  0999 V2000
    0.0792    1.4571   -0.0000 N   0  0  0  0  0  0  0  0  0  0  0  0
    0.0777   -1.4601    0.0002 N   0  0  0  0  0  0  0  0  0  0  0  0
    1.1816    0.7684   -0.0000 C   0  0  0  0  0  0  0  0  0  0  0  0
    1.1808   -0.7726    0.0001 C   0  0  0  0  0  0  0  0  0  0  0  0
   -1.2107   -0.7640    0.0002 C   0  0  0  0  0  0  0  0  0  0  0  0
   -1.2099    0.7623    0.0001 C   0  0  0  0  0  0  0  0  0  0  0  0
    2.5358   -1.4937    0.0000 C   0  0  0  0  0  0  0  0  0  0  0  0
    2.5374    1.4880   -0.0002 C   0  0  0  0  0  0  0  0  0  0  0  0
   -2.3794   -1.4482    0.0003 C   0  0  0  0  0  0  0  0  0  0  0  0
   -2.3778    1.4478    0.0001 C   0  0  0  0  0  0  0  0  0  0  0  0
    3.6946    0.7719   -0.0002 C   0  0  0  0  0  0  0  0  0  0  0  0
    3.6938   -0.7788   -0.0001 C   0  0  0  0  0  0  0  0  0  0  0  0
   -3.7133    0.6791    0.0003 C   0  0  0  0  0  0  0  0  0  0  0  0
   -3.7141   -0.6781    0.0003 C   0  0  0  0  0  0  0  0  0  0  0  0
    4.6281   -1.3004   -0.0001 H   0  0  0  0  0  0  0  0  0  0  0  0
   -2.3760   -2.5182    0.0004 H   0  0  0  0  0  0  0  0  0  0  0  0
    2.5701   -2.5631    0.0001 H   0  0  0  0  0  0  0  0  0  0  0  0
   -4.6408   -1.2129    0.0004 H   0  0  0  0  0  0  0  0  0  0  0  0
   -2.3733    2.5178    0.0001 H   0  0  0  0  0  0  0  0  0  0  0  0
    2.5728    2.5574   -0.0002 H   0  0  0  0  0  0  0  0  0  0  0  0
    5.0401    1.5211   -0.0003 C   0  0  0  0  0  0  0  0  0  0  0  0
    6.2031    0.8254   -0.0003 C   0  0  0  0  0  0  0  0  0  0  0  0
    5.0567    2.5910   -0.0004 H   0  0  0  0  0  0  0  0  0  0  0  0
    7.1379    1.3459   -0.0004 H   0  0  0  0  0  0  0  0  0  0  0  0
    6.1865   -0.2445   -0.0003 H   0  0  0  0  0  0  0  0  0  0  0  0
   -5.0463    1.4503    0.0003 C   0  0  0  0  0  0  0  0  0  0  0  0
   -5.0450    2.8517    0.0002 C   0  0  0  0  0  0  0  0  0  0  0  0
   -6.2606    0.7507    0.0004 C   0  0  0  0  0  0  0  0  0  0  0  0
   -6.2580    3.5535    0.0003 C   0  0  0  0  0  0  0  0  0  0  0  0
   -4.1179    3.3858    0.0001 H   0  0  0  0  0  0  0  0  0  0  0  0
   -7.4736    1.4525    0.0004 C   0  0  0  0  0  0  0  0  0  0  0  0
   -6.2616   -0.3193    0.0005 H   0  0  0  0  0  0  0  0  0  0  0  0
   -7.4723    2.8539    0.0004 C   0  0  0  0  0  0  0  0  0  0  0  0
   -6.2571    4.6235    0.0002 H   0  0  0  0  0  0  0  0  0  0  0  0
   -8.4007    0.9183    0.0005 H   0  0  0  0  0  0  0  0  0  0  0  0
   -8.3985    3.3897    0.0004 H   0  0  0  0  0  0  0  0  0  0  0  0
  1  6  1  0  0  0  0
  1  3  2  0  0  0  0
  2  5  1  0  0  0  0
  2  4  2  0  0  0  0
  3  4  1  0  0  0  0
  3  8  1  0  0  0  0
  4  7  1  0  0  0  0
  5  9  2  0  0  0  0
  5  6  1  0  0  0  0
  6 10  2  0  0  0  0
  7 12  2  0  0  0  0
  7 17  1  0  0  0  0
  8 11  2  0  0  0  0
  8 20  1  0  0  0  0
  9 14  1  0  0  0  0
  9 16  1  0  0  0  0
 10 13  1  0  0  0  0
 10 19  1  0  0  0  0
 11 12  1  0  0  0  0
 11 21  1  0  0  0  0
 12 15  1  0  0  0  0
 13 14  2  0  0  0  0
 13 26  1  0  0  0  0
 14 18  1  0  0  0  0
 21 22  2  0  0  0  0
 21 23  1  0  0  0  0
 22 24  1  0  0  0  0
 22 25  1  0  0  0  0
 26 27  2  0  0  0  0
 26 28  1  0  0  0  0
 27 29  1  0  0  0  0
 27 30  1  0  0  0  0
 28 31  2  0  0  0  0
 28 32  1  0  0  0  0
 29 33  2  0  0  0  0
 29 34  1  0  0  0  0
 31 33  1  0  0  0  0
 31 35  1  0  0  0  0
 33 36  1  0  0  0  0
M  END
